* NGSPICE file created from PrimitiveCalculator.ext - technology: sky130A

* Black-box entry subcircuit for sky130_fd_sc_hd__decap_8 abstract view
.subckt sky130_fd_sc_hd__decap_8 VGND VNB VPB VPWR
.ends

* Black-box entry subcircuit for sky130_fd_sc_hd__tapvpwrvgnd_1 abstract view
.subckt sky130_fd_sc_hd__tapvpwrvgnd_1 VGND VPWR
.ends

* Black-box entry subcircuit for sky130_fd_sc_hd__decap_12 abstract view
.subckt sky130_fd_sc_hd__decap_12 VGND VNB VPB VPWR
.ends

* Black-box entry subcircuit for sky130_fd_sc_hd__decap_6 abstract view
.subckt sky130_fd_sc_hd__decap_6 VGND VNB VPB VPWR
.ends

* Black-box entry subcircuit for sky130_fd_sc_hd__fill_1 abstract view
.subckt sky130_fd_sc_hd__fill_1 VGND VNB VPB VPWR
.ends

* Black-box entry subcircuit for sky130_fd_sc_hd__decap_4 abstract view
.subckt sky130_fd_sc_hd__decap_4 VGND VNB VPB VPWR
.ends

* Black-box entry subcircuit for sky130_fd_sc_hd__fill_2 abstract view
.subckt sky130_fd_sc_hd__fill_2 VGND VNB VPB VPWR
.ends

* Black-box entry subcircuit for sky130_fd_sc_hd__decap_3 abstract view
.subckt sky130_fd_sc_hd__decap_3 VGND VNB VPB VPWR
.ends

* Black-box entry subcircuit for sky130_fd_sc_hd__conb_1 abstract view
.subckt sky130_fd_sc_hd__conb_1 VGND VNB VPB VPWR HI LO
.ends

* Black-box entry subcircuit for sky130_fd_sc_hd__dfxtp_1 abstract view
.subckt sky130_fd_sc_hd__dfxtp_1 CLK D VGND VNB VPB VPWR Q
.ends

* Black-box entry subcircuit for sky130_fd_sc_hd__buf_2 abstract view
.subckt sky130_fd_sc_hd__buf_2 A VGND VNB VPB VPWR X
.ends

* Black-box entry subcircuit for sky130_fd_sc_hd__nor2_1 abstract view
.subckt sky130_fd_sc_hd__nor2_1 A B VGND VNB VPB VPWR Y
.ends

.subckt PrimitiveCalculator VGND VPWR clk led_flag restart rotary_a rotary_b rst select
+ seven_segment_digit seven_segment_out[0] seven_segment_out[1] seven_segment_out[2]
+ seven_segment_out[3] seven_segment_out[4] seven_segment_out[5] seven_segment_out[6]
XFILLER_36_19 VGND VGND VPWR VPWR sky130_fd_sc_hd__decap_8
XTAP_188 VGND VPWR sky130_fd_sc_hd__tapvpwrvgnd_1
XTAP_177 VGND VPWR sky130_fd_sc_hd__tapvpwrvgnd_1
XTAP_199 VGND VPWR sky130_fd_sc_hd__tapvpwrvgnd_1
XFILLER_52_29 VGND VGND VPWR VPWR sky130_fd_sc_hd__decap_12
XFILLER_22_133 VGND VGND VPWR VPWR sky130_fd_sc_hd__decap_6
XFILLER_22_177 VGND VGND VPWR VPWR sky130_fd_sc_hd__decap_12
XFILLER_45_225 VGND VGND VPWR VPWR sky130_fd_sc_hd__decap_12
XFILLER_13_111 VGND VGND VPWR VPWR sky130_fd_sc_hd__fill_1
XFILLER_26_41 VGND VGND VPWR VPWR sky130_fd_sc_hd__decap_12
XFILLER_26_85 VGND VGND VPWR VPWR sky130_fd_sc_hd__decap_12
XFILLER_9_137 VGND VGND VPWR VPWR sky130_fd_sc_hd__decap_12
XFILLER_51_217 VGND VGND VPWR VPWR sky130_fd_sc_hd__decap_6
XFILLER_59_317 VGND VGND VPWR VPWR sky130_fd_sc_hd__decap_12
XFILLER_63_39 VGND VGND VPWR VPWR sky130_fd_sc_hd__decap_12
XFILLER_27_225 VGND VGND VPWR VPWR sky130_fd_sc_hd__decap_12
XFILLER_2_357 VGND VGND VPWR VPWR sky130_fd_sc_hd__decap_6
XFILLER_12_65 VGND VGND VPWR VPWR sky130_fd_sc_hd__decap_12
XFILLER_37_51 VGND VGND VPWR VPWR sky130_fd_sc_hd__decap_4
XFILLER_41_261 VGND VGND VPWR VPWR sky130_fd_sc_hd__decap_12
XFILLER_33_217 VGND VGND VPWR VPWR sky130_fd_sc_hd__decap_6
XFILLER_56_309 VGND VGND VPWR VPWR sky130_fd_sc_hd__decap_12
XFILLER_49_361 VGND VGND VPWR VPWR sky130_fd_sc_hd__decap_12
XFILLER_20_401 VGND VGND VPWR VPWR sky130_fd_sc_hd__decap_6
XFILLER_59_169 VGND VGND VPWR VPWR sky130_fd_sc_hd__decap_12
XFILLER_59_125 VGND VGND VPWR VPWR sky130_fd_sc_hd__decap_12
XFILLER_30_209 VGND VGND VPWR VPWR sky130_fd_sc_hd__decap_12
XFILLER_15_217 VGND VGND VPWR VPWR sky130_fd_sc_hd__decap_6
XFILLER_23_261 VGND VGND VPWR VPWR sky130_fd_sc_hd__decap_12
XFILLER_7_405 VGND VGND VPWR VPWR sky130_fd_sc_hd__fill_2
XFILLER_38_309 VGND VGND VPWR VPWR sky130_fd_sc_hd__decap_12
XFILLER_2_165 VGND VGND VPWR VPWR sky130_fd_sc_hd__decap_12
XFILLER_2_121 VGND VGND VPWR VPWR sky130_fd_sc_hd__decap_12
XFILLER_48_83 VGND VGND VPWR VPWR sky130_fd_sc_hd__fill_1
XFILLER_0_57 VGND VGND VPWR VPWR sky130_fd_sc_hd__decap_12
XFILLER_9_55 VGND VGND VPWR VPWR sky130_fd_sc_hd__fill_1
XFILLER_50_3 VGND VGND VPWR VPWR sky130_fd_sc_hd__decap_12
XFILLER_56_139 VGND VGND VPWR VPWR sky130_fd_sc_hd__fill_1
XFILLER_52_389 VGND VGND VPWR VPWR sky130_fd_sc_hd__decap_12
XFILLER_52_345 VGND VGND VPWR VPWR sky130_fd_sc_hd__decap_12
XFILLER_52_301 VGND VGND VPWR VPWR sky130_fd_sc_hd__decap_6
XFILLER_12_209 VGND VGND VPWR VPWR sky130_fd_sc_hd__decap_12
XFILLER_60_29 VGND VGND VPWR VPWR sky130_fd_sc_hd__decap_12
XFILLER_20_253 VGND VGND VPWR VPWR sky130_fd_sc_hd__decap_12
XFILLER_62_109 VGND VGND VPWR VPWR sky130_fd_sc_hd__decap_12
XFILLER_55_161 VGND VGND VPWR VPWR sky130_fd_sc_hd__decap_6
XFILLER_18_53 VGND VGND VPWR VPWR sky130_fd_sc_hd__decap_12
XFILLER_18_97 VGND VGND VPWR VPWR sky130_fd_sc_hd__decap_12
XFILLER_34_85 VGND VGND VPWR VPWR sky130_fd_sc_hd__decap_12
XFILLER_34_41 VGND VGND VPWR VPWR sky130_fd_sc_hd__decap_12
XTAP_507 VGND VPWR sky130_fd_sc_hd__tapvpwrvgnd_1
XFILLER_7_279 VGND VGND VPWR VPWR sky130_fd_sc_hd__fill_1
XFILLER_59_93 VGND VGND VPWR VPWR sky130_fd_sc_hd__decap_12
XTAP_529 VGND VPWR sky130_fd_sc_hd__tapvpwrvgnd_1
XTAP_518 VGND VPWR sky130_fd_sc_hd__tapvpwrvgnd_1
XFILLER_38_139 VGND VGND VPWR VPWR sky130_fd_sc_hd__fill_1
XFILLER_34_345 VGND VGND VPWR VPWR sky130_fd_sc_hd__decap_12
XFILLER_34_301 VGND VGND VPWR VPWR sky130_fd_sc_hd__decap_6
XFILLER_44_109 VGND VGND VPWR VPWR sky130_fd_sc_hd__decap_12
XFILLER_37_161 VGND VGND VPWR VPWR sky130_fd_sc_hd__decap_6
XFILLER_52_197 VGND VGND VPWR VPWR sky130_fd_sc_hd__decap_12
XFILLER_52_153 VGND VGND VPWR VPWR sky130_fd_sc_hd__decap_12
XFILLER_20_65 VGND VGND VPWR VPWR sky130_fd_sc_hd__decap_12
XFILLER_45_51 VGND VGND VPWR VPWR sky130_fd_sc_hd__decap_4
XFILLER_16_301 VGND VGND VPWR VPWR sky130_fd_sc_hd__decap_6
XFILLER_16_345 VGND VGND VPWR VPWR sky130_fd_sc_hd__decap_12
XFILLER_16_389 VGND VGND VPWR VPWR sky130_fd_sc_hd__decap_12
XFILLER_31_337 VGND VGND VPWR VPWR sky130_fd_sc_hd__decap_12
XTAP_348 VGND VPWR sky130_fd_sc_hd__tapvpwrvgnd_1
XFILLER_3_293 VGND VGND VPWR VPWR sky130_fd_sc_hd__decap_12
XTAP_304 VGND VPWR sky130_fd_sc_hd__tapvpwrvgnd_1
XTAP_315 VGND VPWR sky130_fd_sc_hd__tapvpwrvgnd_1
XTAP_326 VGND VPWR sky130_fd_sc_hd__tapvpwrvgnd_1
XTAP_337 VGND VPWR sky130_fd_sc_hd__tapvpwrvgnd_1
XTAP_359 VGND VPWR sky130_fd_sc_hd__tapvpwrvgnd_1
XFILLER_13_3 VGND VGND VPWR VPWR sky130_fd_sc_hd__decap_12
XFILLER_19_161 VGND VGND VPWR VPWR sky130_fd_sc_hd__decap_6
XFILLER_26_109 VGND VGND VPWR VPWR sky130_fd_sc_hd__decap_12
XFILLER_34_197 VGND VGND VPWR VPWR sky130_fd_sc_hd__decap_12
XFILLER_34_153 VGND VGND VPWR VPWR sky130_fd_sc_hd__decap_12
XFILLER_57_223 VGND VGND VPWR VPWR sky130_fd_sc_hd__fill_1
XFILLER_40_189 VGND VGND VPWR VPWR sky130_fd_sc_hd__decap_6
XFILLER_13_337 VGND VGND VPWR VPWR sky130_fd_sc_hd__decap_12
XFILLER_63_237 VGND VGND VPWR VPWR sky130_fd_sc_hd__decap_12
XFILLER_56_83 VGND VGND VPWR VPWR sky130_fd_sc_hd__fill_1
XFILLER_48_289 VGND VGND VPWR VPWR sky130_fd_sc_hd__decap_12
XFILLER_48_245 VGND VGND VPWR VPWR sky130_fd_sc_hd__decap_6
XFILLER_31_167 VGND VGND VPWR VPWR sky130_fd_sc_hd__fill_1
XFILLER_16_153 VGND VGND VPWR VPWR sky130_fd_sc_hd__decap_12
XFILLER_16_197 VGND VGND VPWR VPWR sky130_fd_sc_hd__decap_12
XFILLER_8_363 VGND VGND VPWR VPWR sky130_fd_sc_hd__fill_1
XFILLER_39_223 VGND VGND VPWR VPWR sky130_fd_sc_hd__fill_1
XTAP_178 VGND VPWR sky130_fd_sc_hd__tapvpwrvgnd_1
XTAP_167 VGND VPWR sky130_fd_sc_hd__tapvpwrvgnd_1
XTAP_156 VGND VPWR sky130_fd_sc_hd__tapvpwrvgnd_1
XTAP_145 VGND VPWR sky130_fd_sc_hd__tapvpwrvgnd_1
XTAP_134 VGND VPWR sky130_fd_sc_hd__tapvpwrvgnd_1
XTAP_189 VGND VPWR sky130_fd_sc_hd__tapvpwrvgnd_1
XFILLER_10_307 VGND VGND VPWR VPWR sky130_fd_sc_hd__fill_1
XFILLER_22_189 VGND VGND VPWR VPWR sky130_fd_sc_hd__decap_6
XFILLER_53_281 VGND VGND VPWR VPWR sky130_fd_sc_hd__decap_12
XFILLER_45_237 VGND VGND VPWR VPWR sky130_fd_sc_hd__decap_12
XFILLER_9_105 VGND VGND VPWR VPWR sky130_fd_sc_hd__decap_6
XFILLER_13_167 VGND VGND VPWR VPWR sky130_fd_sc_hd__fill_1
XFILLER_26_53 VGND VGND VPWR VPWR sky130_fd_sc_hd__decap_12
XFILLER_26_97 VGND VGND VPWR VPWR sky130_fd_sc_hd__decap_12
XFILLER_42_85 VGND VGND VPWR VPWR sky130_fd_sc_hd__decap_12
XFILLER_42_41 VGND VGND VPWR VPWR sky130_fd_sc_hd__decap_12
XFILLER_9_149 VGND VGND VPWR VPWR sky130_fd_sc_hd__decap_12
XFILLER_3_57 VGND VGND VPWR VPWR sky130_fd_sc_hd__decap_12
XFILLER_59_329 VGND VGND VPWR VPWR sky130_fd_sc_hd__decap_6
XFILLER_50_251 VGND VGND VPWR VPWR sky130_fd_sc_hd__fill_1
XFILLER_35_281 VGND VGND VPWR VPWR sky130_fd_sc_hd__decap_12
XFILLER_27_237 VGND VGND VPWR VPWR sky130_fd_sc_hd__decap_12
XFILLER_12_77 VGND VGND VPWR VPWR sky130_fd_sc_hd__decap_6
XFILLER_53_51 VGND VGND VPWR VPWR sky130_fd_sc_hd__decap_4
XFILLER_41_273 VGND VGND VPWR VPWR sky130_fd_sc_hd__decap_6
XFILLER_49_373 VGND VGND VPWR VPWR sky130_fd_sc_hd__decap_12
XFILLER_1_391 VGND VGND VPWR VPWR sky130_fd_sc_hd__fill_1
XFILLER_64_321 VGND VGND VPWR VPWR sky130_fd_sc_hd__decap_12
XFILLER_17_281 VGND VGND VPWR VPWR sky130_fd_sc_hd__decap_12
XFILLER_32_251 VGND VGND VPWR VPWR sky130_fd_sc_hd__fill_1
XFILLER_59_137 VGND VGND VPWR VPWR sky130_fd_sc_hd__decap_12
XFILLER_58_29 VGND VGND VPWR VPWR sky130_fd_sc_hd__decap_12
XFILLER_23_273 VGND VGND VPWR VPWR sky130_fd_sc_hd__decap_6
XFILLER_2_177 VGND VGND VPWR VPWR sky130_fd_sc_hd__decap_12
XFILLER_2_133 VGND VGND VPWR VPWR sky130_fd_sc_hd__decap_6
XFILLER_61_335 VGND VGND VPWR VPWR sky130_fd_sc_hd__fill_1
XFILLER_46_365 VGND VGND VPWR VPWR sky130_fd_sc_hd__decap_12
XFILLER_46_321 VGND VGND VPWR VPWR sky130_fd_sc_hd__decap_12
XFILLER_0_69 VGND VGND VPWR VPWR sky130_fd_sc_hd__decap_12
XFILLER_14_251 VGND VGND VPWR VPWR sky130_fd_sc_hd__fill_1
XFILLER_43_3 VGND VGND VPWR VPWR sky130_fd_sc_hd__decap_12
XFILLER_49_181 VGND VGND VPWR VPWR sky130_fd_sc_hd__decap_12
XFILLER_52_357 VGND VGND VPWR VPWR sky130_fd_sc_hd__decap_6
XFILLER_20_221 VGND VGND VPWR VPWR sky130_fd_sc_hd__decap_12
XFILLER_20_265 VGND VGND VPWR VPWR sky130_fd_sc_hd__decap_12
XFILLER_43_335 VGND VGND VPWR VPWR sky130_fd_sc_hd__fill_1
XFILLER_18_65 VGND VGND VPWR VPWR sky130_fd_sc_hd__decap_12
XFILLER_28_321 VGND VGND VPWR VPWR sky130_fd_sc_hd__decap_12
XFILLER_28_365 VGND VGND VPWR VPWR sky130_fd_sc_hd__decap_12
XFILLER_50_41 VGND VGND VPWR VPWR sky130_fd_sc_hd__decap_12
XFILLER_34_97 VGND VGND VPWR VPWR sky130_fd_sc_hd__decap_12
XFILLER_34_53 VGND VGND VPWR VPWR sky130_fd_sc_hd__decap_12
XFILLER_7_225 VGND VGND VPWR VPWR sky130_fd_sc_hd__decap_12
XTAP_519 VGND VPWR sky130_fd_sc_hd__tapvpwrvgnd_1
XTAP_508 VGND VPWR sky130_fd_sc_hd__tapvpwrvgnd_1
XFILLER_50_85 VGND VGND VPWR VPWR sky130_fd_sc_hd__decap_12
XFILLER_46_195 VGND VGND VPWR VPWR sky130_fd_sc_hd__fill_1
XFILLER_34_357 VGND VGND VPWR VPWR sky130_fd_sc_hd__decap_6
XFILLER_57_405 VGND VGND VPWR VPWR sky130_fd_sc_hd__fill_2
XFILLER_52_121 VGND VGND VPWR VPWR sky130_fd_sc_hd__decap_12
XFILLER_25_335 VGND VGND VPWR VPWR sky130_fd_sc_hd__fill_1
XFILLER_52_165 VGND VGND VPWR VPWR sky130_fd_sc_hd__decap_12
XFILLER_20_77 VGND VGND VPWR VPWR sky130_fd_sc_hd__decap_6
XFILLER_31_349 VGND VGND VPWR VPWR sky130_fd_sc_hd__decap_12
XFILLER_31_305 VGND VGND VPWR VPWR sky130_fd_sc_hd__decap_12
XFILLER_16_357 VGND VGND VPWR VPWR sky130_fd_sc_hd__decap_6
XFILLER_28_195 VGND VGND VPWR VPWR sky130_fd_sc_hd__fill_1
XFILLER_61_51 VGND VGND VPWR VPWR sky130_fd_sc_hd__decap_4
XFILLER_39_405 VGND VGND VPWR VPWR sky130_fd_sc_hd__fill_2
XTAP_349 VGND VPWR sky130_fd_sc_hd__tapvpwrvgnd_1
XFILLER_3_261 VGND VGND VPWR VPWR sky130_fd_sc_hd__decap_12
XTAP_305 VGND VPWR sky130_fd_sc_hd__tapvpwrvgnd_1
XTAP_316 VGND VPWR sky130_fd_sc_hd__tapvpwrvgnd_1
XTAP_327 VGND VPWR sky130_fd_sc_hd__tapvpwrvgnd_1
XTAP_338 VGND VPWR sky130_fd_sc_hd__tapvpwrvgnd_1
XFILLER_34_121 VGND VGND VPWR VPWR sky130_fd_sc_hd__decap_12
XFILLER_34_165 VGND VGND VPWR VPWR sky130_fd_sc_hd__decap_12
XFILLER_57_279 VGND VGND VPWR VPWR sky130_fd_sc_hd__fill_1
XFILLER_13_305 VGND VGND VPWR VPWR sky130_fd_sc_hd__decap_12
XFILLER_13_349 VGND VGND VPWR VPWR sky130_fd_sc_hd__decap_12
XFILLER_15_55 VGND VGND VPWR VPWR sky130_fd_sc_hd__fill_1
XFILLER_21_393 VGND VGND VPWR VPWR sky130_fd_sc_hd__decap_12
XFILLER_0_253 VGND VGND VPWR VPWR sky130_fd_sc_hd__decap_12
XFILLER_63_249 VGND VGND VPWR VPWR sky130_fd_sc_hd__decap_12
XFILLER_63_205 VGND VGND VPWR VPWR sky130_fd_sc_hd__decap_12
XFILLER_16_121 VGND VGND VPWR VPWR sky130_fd_sc_hd__decap_12
XFILLER_31_113 VGND VGND VPWR VPWR sky130_fd_sc_hd__decap_12
XFILLER_16_165 VGND VGND VPWR VPWR sky130_fd_sc_hd__decap_12
XTAP_179 VGND VPWR sky130_fd_sc_hd__tapvpwrvgnd_1
XTAP_168 VGND VPWR sky130_fd_sc_hd__tapvpwrvgnd_1
XTAP_157 VGND VPWR sky130_fd_sc_hd__tapvpwrvgnd_1
XTAP_135 VGND VPWR sky130_fd_sc_hd__tapvpwrvgnd_1
XTAP_146 VGND VPWR sky130_fd_sc_hd__tapvpwrvgnd_1
XFILLER_39_279 VGND VGND VPWR VPWR sky130_fd_sc_hd__fill_1
XFILLER_45_249 VGND VGND VPWR VPWR sky130_fd_sc_hd__decap_12
XFILLER_45_205 VGND VGND VPWR VPWR sky130_fd_sc_hd__decap_12
XFILLER_53_293 VGND VGND VPWR VPWR sky130_fd_sc_hd__decap_12
XFILLER_42_53 VGND VGND VPWR VPWR sky130_fd_sc_hd__decap_12
XFILLER_13_113 VGND VGND VPWR VPWR sky130_fd_sc_hd__decap_12
XFILLER_26_65 VGND VGND VPWR VPWR sky130_fd_sc_hd__decap_12
XFILLER_42_97 VGND VGND VPWR VPWR sky130_fd_sc_hd__decap_12
XFILLER_3_69 VGND VGND VPWR VPWR sky130_fd_sc_hd__decap_12
XFILLER_27_205 VGND VGND VPWR VPWR sky130_fd_sc_hd__decap_12
XFILLER_27_249 VGND VGND VPWR VPWR sky130_fd_sc_hd__decap_12
XFILLER_35_293 VGND VGND VPWR VPWR sky130_fd_sc_hd__decap_12
XFILLER_6_109 VGND VGND VPWR VPWR sky130_fd_sc_hd__decap_12
XFILLER_58_363 VGND VGND VPWR VPWR sky130_fd_sc_hd__fill_1
XFILLER_64_333 VGND VGND VPWR VPWR sky130_fd_sc_hd__decap_3
XFILLER_49_385 VGND VGND VPWR VPWR sky130_fd_sc_hd__decap_6
XFILLER_17_293 VGND VGND VPWR VPWR sky130_fd_sc_hd__decap_12
XFILLER_59_149 VGND VGND VPWR VPWR sky130_fd_sc_hd__decap_12
XFILLER_59_105 VGND VGND VPWR VPWR sky130_fd_sc_hd__decap_6
XFILLER_23_55 VGND VGND VPWR VPWR sky130_fd_sc_hd__fill_1
XFILLER_3_3 VGND VGND VPWR VPWR sky130_fd_sc_hd__decap_12
XFILLER_48_85 VGND VGND VPWR VPWR sky130_fd_sc_hd__decap_12
XFILLER_48_41 VGND VGND VPWR VPWR sky130_fd_sc_hd__decap_12
XFILLER_46_333 VGND VGND VPWR VPWR sky130_fd_sc_hd__decap_12
XFILLER_2_189 VGND VGND VPWR VPWR sky130_fd_sc_hd__decap_6
XFILLER_0_15 VGND VGND VPWR VPWR sky130_fd_sc_hd__decap_12
XFILLER_46_377 VGND VGND VPWR VPWR sky130_fd_sc_hd__decap_12
XFILLER_9_57 VGND VGND VPWR VPWR sky130_fd_sc_hd__decap_12
XFILLER_49_193 VGND VGND VPWR VPWR sky130_fd_sc_hd__decap_12
XFILLER_20_233 VGND VGND VPWR VPWR sky130_fd_sc_hd__decap_12
XFILLER_20_277 VGND VGND VPWR VPWR sky130_fd_sc_hd__decap_12
XFILLER_28_333 VGND VGND VPWR VPWR sky130_fd_sc_hd__decap_12
XFILLER_18_77 VGND VGND VPWR VPWR sky130_fd_sc_hd__decap_6
XFILLER_28_377 VGND VGND VPWR VPWR sky130_fd_sc_hd__decap_12
XFILLER_51_391 VGND VGND VPWR VPWR sky130_fd_sc_hd__fill_1
XFILLER_50_53 VGND VGND VPWR VPWR sky130_fd_sc_hd__decap_12
XFILLER_34_65 VGND VGND VPWR VPWR sky130_fd_sc_hd__decap_12
XFILLER_7_237 VGND VGND VPWR VPWR sky130_fd_sc_hd__decap_12
XFILLER_59_51 VGND VGND VPWR VPWR sky130_fd_sc_hd__decap_4
XTAP_509 VGND VPWR sky130_fd_sc_hd__tapvpwrvgnd_1
XFILLER_50_97 VGND VGND VPWR VPWR sky130_fd_sc_hd__decap_12
XFILLER_46_141 VGND VGND VPWR VPWR sky130_fd_sc_hd__decap_12
XFILLER_19_399 VGND VGND VPWR VPWR sky130_fd_sc_hd__fill_1
XFILLER_61_111 VGND VGND VPWR VPWR sky130_fd_sc_hd__fill_1
XFILLER_52_177 VGND VGND VPWR VPWR sky130_fd_sc_hd__decap_12
XFILLER_52_133 VGND VGND VPWR VPWR sky130_fd_sc_hd__decap_6
XFILLER_33_391 VGND VGND VPWR VPWR sky130_fd_sc_hd__fill_1
XFILLER_28_141 VGND VGND VPWR VPWR sky130_fd_sc_hd__decap_12
XFILLER_43_111 VGND VGND VPWR VPWR sky130_fd_sc_hd__fill_1
XFILLER_31_317 VGND VGND VPWR VPWR sky130_fd_sc_hd__decap_12
XFILLER_3_273 VGND VGND VPWR VPWR sky130_fd_sc_hd__decap_6
XTAP_306 VGND VPWR sky130_fd_sc_hd__tapvpwrvgnd_1
XTAP_317 VGND VPWR sky130_fd_sc_hd__tapvpwrvgnd_1
XTAP_328 VGND VPWR sky130_fd_sc_hd__tapvpwrvgnd_1
XTAP_339 VGND VPWR sky130_fd_sc_hd__tapvpwrvgnd_1
XFILLER_34_133 VGND VGND VPWR VPWR sky130_fd_sc_hd__decap_6
XFILLER_34_177 VGND VGND VPWR VPWR sky130_fd_sc_hd__decap_12
XFILLER_15_391 VGND VGND VPWR VPWR sky130_fd_sc_hd__fill_1
XFILLER_57_225 VGND VGND VPWR VPWR sky130_fd_sc_hd__decap_12
XFILLER_13_317 VGND VGND VPWR VPWR sky130_fd_sc_hd__decap_12
XFILLER_25_111 VGND VGND VPWR VPWR sky130_fd_sc_hd__fill_1
XFILLER_31_55 VGND VGND VPWR VPWR sky130_fd_sc_hd__fill_1
XFILLER_21_361 VGND VGND VPWR VPWR sky130_fd_sc_hd__decap_12
XFILLER_0_265 VGND VGND VPWR VPWR sky130_fd_sc_hd__decap_12
X_13__4 VGND VGND VPWR VPWR _13__4/HI seven_segment_out[6] sky130_fd_sc_hd__conb_1
XFILLER_63_217 VGND VGND VPWR VPWR sky130_fd_sc_hd__decap_6
XFILLER_56_85 VGND VGND VPWR VPWR sky130_fd_sc_hd__decap_12
XFILLER_56_41 VGND VGND VPWR VPWR sky130_fd_sc_hd__decap_12
XFILLER_16_133 VGND VGND VPWR VPWR sky130_fd_sc_hd__decap_6
XFILLER_31_169 VGND VGND VPWR VPWR sky130_fd_sc_hd__decap_12
XFILLER_31_125 VGND VGND VPWR VPWR sky130_fd_sc_hd__decap_12
XFILLER_8_321 VGND VGND VPWR VPWR sky130_fd_sc_hd__decap_12
XFILLER_16_177 VGND VGND VPWR VPWR sky130_fd_sc_hd__decap_12
XFILLER_8_365 VGND VGND VPWR VPWR sky130_fd_sc_hd__decap_12
XFILLER_39_225 VGND VGND VPWR VPWR sky130_fd_sc_hd__decap_12
XTAP_169 VGND VPWR sky130_fd_sc_hd__tapvpwrvgnd_1
XTAP_158 VGND VPWR sky130_fd_sc_hd__tapvpwrvgnd_1
XTAP_136 VGND VPWR sky130_fd_sc_hd__tapvpwrvgnd_1
XTAP_147 VGND VPWR sky130_fd_sc_hd__tapvpwrvgnd_1
XFILLER_50_401 VGND VGND VPWR VPWR sky130_fd_sc_hd__decap_6
XFILLER_10_309 VGND VGND VPWR VPWR sky130_fd_sc_hd__decap_12
XFILLER_60_209 VGND VGND VPWR VPWR sky130_fd_sc_hd__decap_12
XFILLER_45_217 VGND VGND VPWR VPWR sky130_fd_sc_hd__decap_6
XFILLER_53_261 VGND VGND VPWR VPWR sky130_fd_sc_hd__decap_12
XFILLER_42_65 VGND VGND VPWR VPWR sky130_fd_sc_hd__decap_12
XFILLER_13_125 VGND VGND VPWR VPWR sky130_fd_sc_hd__decap_12
XFILLER_13_169 VGND VGND VPWR VPWR sky130_fd_sc_hd__decap_12
XFILLER_26_77 VGND VGND VPWR VPWR sky130_fd_sc_hd__decap_6
XFILLER_5_335 VGND VGND VPWR VPWR sky130_fd_sc_hd__fill_1
XFILLER_3_15 VGND VGND VPWR VPWR sky130_fd_sc_hd__decap_12
XFILLER_32_401 VGND VGND VPWR VPWR sky130_fd_sc_hd__decap_6
XFILLER_8_195 VGND VGND VPWR VPWR sky130_fd_sc_hd__fill_1
XFILLER_42_209 VGND VGND VPWR VPWR sky130_fd_sc_hd__decap_12
XFILLER_27_217 VGND VGND VPWR VPWR sky130_fd_sc_hd__decap_6
XFILLER_50_253 VGND VGND VPWR VPWR sky130_fd_sc_hd__decap_12
XFILLER_35_261 VGND VGND VPWR VPWR sky130_fd_sc_hd__decap_12
XFILLER_10_139 VGND VGND VPWR VPWR sky130_fd_sc_hd__fill_1
XFILLER_14_401 VGND VGND VPWR VPWR sky130_fd_sc_hd__decap_6
XFILLER_1_393 VGND VGND VPWR VPWR sky130_fd_sc_hd__decap_12
XFILLER_24_209 VGND VGND VPWR VPWR sky130_fd_sc_hd__decap_12
XFILLER_32_253 VGND VGND VPWR VPWR sky130_fd_sc_hd__decap_12
XFILLER_17_261 VGND VGND VPWR VPWR sky130_fd_sc_hd__decap_12
XFILLER_48_97 VGND VGND VPWR VPWR sky130_fd_sc_hd__decap_12
XFILLER_48_53 VGND VGND VPWR VPWR sky130_fd_sc_hd__decap_12
XFILLER_46_345 VGND VGND VPWR VPWR sky130_fd_sc_hd__decap_12
XFILLER_46_301 VGND VGND VPWR VPWR sky130_fd_sc_hd__decap_6
XFILLER_0_27 VGND VGND VPWR VPWR sky130_fd_sc_hd__fill_1
XFILLER_64_85 VGND VGND VPWR VPWR sky130_fd_sc_hd__decap_12
XFILLER_61_337 VGND VGND VPWR VPWR sky130_fd_sc_hd__decap_12
XFILLER_46_389 VGND VGND VPWR VPWR sky130_fd_sc_hd__decap_12
XFILLER_9_69 VGND VGND VPWR VPWR sky130_fd_sc_hd__decap_12
XFILLER_14_253 VGND VGND VPWR VPWR sky130_fd_sc_hd__decap_12
XFILLER_56_109 VGND VGND VPWR VPWR sky130_fd_sc_hd__decap_12
XFILLER_29_3 VGND VGND VPWR VPWR sky130_fd_sc_hd__decap_12
XFILLER_64_197 VGND VGND VPWR VPWR sky130_fd_sc_hd__decap_12
XFILLER_49_161 VGND VGND VPWR VPWR sky130_fd_sc_hd__decap_6
XFILLER_20_245 VGND VGND VPWR VPWR sky130_fd_sc_hd__decap_6
XFILLER_20_289 VGND VGND VPWR VPWR sky130_fd_sc_hd__decap_12
XFILLER_28_301 VGND VGND VPWR VPWR sky130_fd_sc_hd__decap_6
XFILLER_28_345 VGND VGND VPWR VPWR sky130_fd_sc_hd__decap_12
XFILLER_43_337 VGND VGND VPWR VPWR sky130_fd_sc_hd__decap_12
XFILLER_34_77 VGND VGND VPWR VPWR sky130_fd_sc_hd__decap_6
XFILLER_11_223 VGND VGND VPWR VPWR sky130_fd_sc_hd__fill_1
XFILLER_28_389 VGND VGND VPWR VPWR sky130_fd_sc_hd__decap_12
XFILLER_50_65 VGND VGND VPWR VPWR sky130_fd_sc_hd__decap_12
XFILLER_7_205 VGND VGND VPWR VPWR sky130_fd_sc_hd__decap_12
XFILLER_7_249 VGND VGND VPWR VPWR sky130_fd_sc_hd__decap_12
XFILLER_38_109 VGND VGND VPWR VPWR sky130_fd_sc_hd__decap_12
XFILLER_46_197 VGND VGND VPWR VPWR sky130_fd_sc_hd__decap_12
XFILLER_46_153 VGND VGND VPWR VPWR sky130_fd_sc_hd__decap_12
XFILLER_61_167 VGND VGND VPWR VPWR sky130_fd_sc_hd__fill_1
XFILLER_52_189 VGND VGND VPWR VPWR sky130_fd_sc_hd__decap_6
XFILLER_40_307 VGND VGND VPWR VPWR sky130_fd_sc_hd__fill_1
XFILLER_1_81 VGND VGND VPWR VPWR sky130_fd_sc_hd__decap_12
XFILLER_25_337 VGND VGND VPWR VPWR sky130_fd_sc_hd__decap_12
XFILLER_0_403 VGND VGND VPWR VPWR sky130_fd_sc_hd__decap_4
XFILLER_29_55 VGND VGND VPWR VPWR sky130_fd_sc_hd__fill_1
XFILLER_28_153 VGND VGND VPWR VPWR sky130_fd_sc_hd__decap_12
XFILLER_28_197 VGND VGND VPWR VPWR sky130_fd_sc_hd__decap_12
XFILLER_43_167 VGND VGND VPWR VPWR sky130_fd_sc_hd__fill_1
XFILLER_31_329 VGND VGND VPWR VPWR sky130_fd_sc_hd__decap_6
XFILLER_6_15 VGND VGND VPWR VPWR sky130_fd_sc_hd__decap_12
XTAP_307 VGND VPWR sky130_fd_sc_hd__tapvpwrvgnd_1
XTAP_318 VGND VPWR sky130_fd_sc_hd__tapvpwrvgnd_1
XTAP_329 VGND VPWR sky130_fd_sc_hd__tapvpwrvgnd_1
XFILLER_34_189 VGND VGND VPWR VPWR sky130_fd_sc_hd__decap_6
XFILLER_22_307 VGND VGND VPWR VPWR sky130_fd_sc_hd__fill_1
XFILLER_57_237 VGND VGND VPWR VPWR sky130_fd_sc_hd__decap_12
XFILLER_13_329 VGND VGND VPWR VPWR sky130_fd_sc_hd__decap_6
XFILLER_15_57 VGND VGND VPWR VPWR sky130_fd_sc_hd__decap_12
XFILLER_21_373 VGND VGND VPWR VPWR sky130_fd_sc_hd__decap_12
XFILLER_25_167 VGND VGND VPWR VPWR sky130_fd_sc_hd__fill_1
XFILLER_0_277 VGND VGND VPWR VPWR sky130_fd_sc_hd__decap_3
XFILLER_56_97 VGND VGND VPWR VPWR sky130_fd_sc_hd__decap_12
XFILLER_56_53 VGND VGND VPWR VPWR sky130_fd_sc_hd__decap_12
XFILLER_16_189 VGND VGND VPWR VPWR sky130_fd_sc_hd__decap_6
XFILLER_31_137 VGND VGND VPWR VPWR sky130_fd_sc_hd__decap_12
XFILLER_8_333 VGND VGND VPWR VPWR sky130_fd_sc_hd__decap_12
XFILLER_8_377 VGND VGND VPWR VPWR sky130_fd_sc_hd__decap_12
XTAP_137 VGND VPWR sky130_fd_sc_hd__tapvpwrvgnd_1
XTAP_148 VGND VPWR sky130_fd_sc_hd__tapvpwrvgnd_1
XFILLER_47_281 VGND VGND VPWR VPWR sky130_fd_sc_hd__decap_12
XFILLER_39_237 VGND VGND VPWR VPWR sky130_fd_sc_hd__decap_12
XTAP_159 VGND VPWR sky130_fd_sc_hd__tapvpwrvgnd_1
XFILLER_11_3 VGND VGND VPWR VPWR sky130_fd_sc_hd__decap_12
XFILLER_62_251 VGND VGND VPWR VPWR sky130_fd_sc_hd__fill_1
XFILLER_53_273 VGND VGND VPWR VPWR sky130_fd_sc_hd__decap_6
XFILLER_42_77 VGND VGND VPWR VPWR sky130_fd_sc_hd__decap_6
XFILLER_13_137 VGND VGND VPWR VPWR sky130_fd_sc_hd__decap_12
XFILLER_21_181 VGND VGND VPWR VPWR sky130_fd_sc_hd__decap_12
XFILLER_3_27 VGND VGND VPWR VPWR sky130_fd_sc_hd__decap_12
XFILLER_29_281 VGND VGND VPWR VPWR sky130_fd_sc_hd__decap_12
XFILLER_44_251 VGND VGND VPWR VPWR sky130_fd_sc_hd__fill_1
XFILLER_59_3 VGND VGND VPWR VPWR sky130_fd_sc_hd__decap_12
XFILLER_8_141 VGND VGND VPWR VPWR sky130_fd_sc_hd__decap_12
XFILLER_35_273 VGND VGND VPWR VPWR sky130_fd_sc_hd__decap_6
XFILLER_50_265 VGND VGND VPWR VPWR sky130_fd_sc_hd__decap_12
XFILLER_50_221 VGND VGND VPWR VPWR sky130_fd_sc_hd__decap_12
XFILLER_58_365 VGND VGND VPWR VPWR sky130_fd_sc_hd__decap_12
XFILLER_58_321 VGND VGND VPWR VPWR sky130_fd_sc_hd__decap_12
XTAP_490 VGND VPWR sky130_fd_sc_hd__tapvpwrvgnd_1
XFILLER_37_55 VGND VGND VPWR VPWR sky130_fd_sc_hd__fill_1
XFILLER_26_251 VGND VGND VPWR VPWR sky130_fd_sc_hd__fill_1
XFILLER_5_111 VGND VGND VPWR VPWR sky130_fd_sc_hd__fill_1
XFILLER_1_361 VGND VGND VPWR VPWR sky130_fd_sc_hd__decap_12
XFILLER_64_368 VGND VGND VPWR VPWR sky130_fd_sc_hd__decap_12
XFILLER_17_273 VGND VGND VPWR VPWR sky130_fd_sc_hd__decap_6
XFILLER_32_265 VGND VGND VPWR VPWR sky130_fd_sc_hd__decap_12
XFILLER_32_221 VGND VGND VPWR VPWR sky130_fd_sc_hd__decap_12
XFILLER_55_335 VGND VGND VPWR VPWR sky130_fd_sc_hd__fill_1
XFILLER_11_405 VGND VGND VPWR VPWR sky130_fd_sc_hd__fill_2
XFILLER_23_57 VGND VGND VPWR VPWR sky130_fd_sc_hd__decap_12
XFILLER_61_305 VGND VGND VPWR VPWR sky130_fd_sc_hd__decap_12
XFILLER_58_195 VGND VGND VPWR VPWR sky130_fd_sc_hd__fill_1
XFILLER_48_65 VGND VGND VPWR VPWR sky130_fd_sc_hd__decap_12
XFILLER_46_357 VGND VGND VPWR VPWR sky130_fd_sc_hd__decap_6
XFILLER_64_97 VGND VGND VPWR VPWR sky130_fd_sc_hd__decap_12
XFILLER_61_349 VGND VGND VPWR VPWR sky130_fd_sc_hd__decap_12
XFILLER_9_15 VGND VGND VPWR VPWR sky130_fd_sc_hd__decap_12
XFILLER_14_221 VGND VGND VPWR VPWR sky130_fd_sc_hd__decap_12
XFILLER_14_265 VGND VGND VPWR VPWR sky130_fd_sc_hd__decap_12
XFILLER_37_335 VGND VGND VPWR VPWR sky130_fd_sc_hd__fill_1
XFILLER_43_305 VGND VGND VPWR VPWR sky130_fd_sc_hd__decap_12
XFILLER_28_357 VGND VGND VPWR VPWR sky130_fd_sc_hd__decap_6
XFILLER_51_393 VGND VGND VPWR VPWR sky130_fd_sc_hd__decap_12
XFILLER_43_349 VGND VGND VPWR VPWR sky130_fd_sc_hd__decap_12
XFILLER_50_77 VGND VGND VPWR VPWR sky130_fd_sc_hd__decap_6
XFILLER_7_217 VGND VGND VPWR VPWR sky130_fd_sc_hd__decap_6
XFILLER_11_279 VGND VGND VPWR VPWR sky130_fd_sc_hd__fill_1
XFILLER_61_113 VGND VGND VPWR VPWR sky130_fd_sc_hd__decap_12
XFILLER_46_165 VGND VGND VPWR VPWR sky130_fd_sc_hd__decap_12
XFILLER_46_121 VGND VGND VPWR VPWR sky130_fd_sc_hd__decap_12
XFILLER_19_335 VGND VGND VPWR VPWR sky130_fd_sc_hd__fill_1
XFILLER_41_3 VGND VGND VPWR VPWR sky130_fd_sc_hd__decap_12
XFILLER_25_305 VGND VGND VPWR VPWR sky130_fd_sc_hd__decap_12
XFILLER_33_393 VGND VGND VPWR VPWR sky130_fd_sc_hd__decap_12
XFILLER_1_93 VGND VGND VPWR VPWR sky130_fd_sc_hd__decap_12
XFILLER_25_349 VGND VGND VPWR VPWR sky130_fd_sc_hd__decap_12
XFILLER_4_209 VGND VGND VPWR VPWR sky130_fd_sc_hd__decap_12
XFILLER_45_55 VGND VGND VPWR VPWR sky130_fd_sc_hd__fill_1
XFILLER_43_113 VGND VGND VPWR VPWR sky130_fd_sc_hd__decap_12
XFILLER_28_121 VGND VGND VPWR VPWR sky130_fd_sc_hd__decap_12
XFILLER_28_165 VGND VGND VPWR VPWR sky130_fd_sc_hd__decap_12
XFILLER_6_27 VGND VGND VPWR VPWR sky130_fd_sc_hd__fill_1
XTAP_308 VGND VPWR sky130_fd_sc_hd__tapvpwrvgnd_1
XTAP_319 VGND VPWR sky130_fd_sc_hd__tapvpwrvgnd_1
XFILLER_15_393 VGND VGND VPWR VPWR sky130_fd_sc_hd__decap_12
XFILLER_30_363 VGND VGND VPWR VPWR sky130_fd_sc_hd__fill_1
XFILLER_57_205 VGND VGND VPWR VPWR sky130_fd_sc_hd__decap_12
XFILLER_57_249 VGND VGND VPWR VPWR sky130_fd_sc_hd__decap_12
XFILLER_25_113 VGND VGND VPWR VPWR sky130_fd_sc_hd__decap_12
XFILLER_15_69 VGND VGND VPWR VPWR sky130_fd_sc_hd__decap_12
XFILLER_21_385 VGND VGND VPWR VPWR sky130_fd_sc_hd__decap_6
XFILLER_31_57 VGND VGND VPWR VPWR sky130_fd_sc_hd__decap_12
XFILLER_56_65 VGND VGND VPWR VPWR sky130_fd_sc_hd__decap_12
XFILLER_31_149 VGND VGND VPWR VPWR sky130_fd_sc_hd__decap_12
XFILLER_31_105 VGND VGND VPWR VPWR sky130_fd_sc_hd__decap_6
XFILLER_8_301 VGND VGND VPWR VPWR sky130_fd_sc_hd__decap_6
XFILLER_8_345 VGND VGND VPWR VPWR sky130_fd_sc_hd__decap_12
XFILLER_8_389 VGND VGND VPWR VPWR sky130_fd_sc_hd__decap_12
XFILLER_12_363 VGND VGND VPWR VPWR sky130_fd_sc_hd__fill_1
XFILLER_39_205 VGND VGND VPWR VPWR sky130_fd_sc_hd__decap_12
XTAP_138 VGND VPWR sky130_fd_sc_hd__tapvpwrvgnd_1
XTAP_149 VGND VPWR sky130_fd_sc_hd__tapvpwrvgnd_1
XFILLER_47_293 VGND VGND VPWR VPWR sky130_fd_sc_hd__decap_12
XFILLER_39_249 VGND VGND VPWR VPWR sky130_fd_sc_hd__decap_12
XFILLER_7_81 VGND VGND VPWR VPWR sky130_fd_sc_hd__decap_12
XFILLER_13_105 VGND VGND VPWR VPWR sky130_fd_sc_hd__decap_6
XFILLER_13_149 VGND VGND VPWR VPWR sky130_fd_sc_hd__decap_12
XFILLER_5_337 VGND VGND VPWR VPWR sky130_fd_sc_hd__decap_12
XFILLER_21_193 VGND VGND VPWR VPWR sky130_fd_sc_hd__decap_12
XFILLER_3_39 VGND VGND VPWR VPWR sky130_fd_sc_hd__decap_12
XFILLER_29_293 VGND VGND VPWR VPWR sky130_fd_sc_hd__decap_12
XFILLER_8_153 VGND VGND VPWR VPWR sky130_fd_sc_hd__decap_12
XFILLER_8_197 VGND VGND VPWR VPWR sky130_fd_sc_hd__decap_12
XFILLER_50_233 VGND VGND VPWR VPWR sky130_fd_sc_hd__decap_12
XFILLER_50_277 VGND VGND VPWR VPWR sky130_fd_sc_hd__decap_12
XFILLER_12_15 VGND VGND VPWR VPWR sky130_fd_sc_hd__decap_12
XFILLER_2_307 VGND VGND VPWR VPWR sky130_fd_sc_hd__fill_1
XFILLER_58_377 VGND VGND VPWR VPWR sky130_fd_sc_hd__decap_12
XFILLER_58_333 VGND VGND VPWR VPWR sky130_fd_sc_hd__decap_12
XTAP_491 VGND VPWR sky130_fd_sc_hd__tapvpwrvgnd_1
XTAP_480 VGND VPWR sky130_fd_sc_hd__tapvpwrvgnd_1
XFILLER_53_55 VGND VGND VPWR VPWR sky130_fd_sc_hd__fill_1
XFILLER_5_167 VGND VGND VPWR VPWR sky130_fd_sc_hd__fill_1
XFILLER_1_373 VGND VGND VPWR VPWR sky130_fd_sc_hd__decap_12
XFILLER_32_277 VGND VGND VPWR VPWR sky130_fd_sc_hd__decap_12
XFILLER_32_233 VGND VGND VPWR VPWR sky130_fd_sc_hd__decap_12
XFILLER_63_391 VGND VGND VPWR VPWR sky130_fd_sc_hd__fill_1
XFILLER_23_69 VGND VGND VPWR VPWR sky130_fd_sc_hd__decap_12
XFILLER_58_141 VGND VGND VPWR VPWR sky130_fd_sc_hd__decap_12
XFILLER_64_32 VGND VGND VPWR VPWR sky130_fd_sc_hd__decap_12
XFILLER_61_317 VGND VGND VPWR VPWR sky130_fd_sc_hd__decap_12
XFILLER_48_77 VGND VGND VPWR VPWR sky130_fd_sc_hd__decap_6
XFILLER_0_29 VGND VGND VPWR VPWR sky130_fd_sc_hd__decap_12
XFILLER_9_27 VGND VGND VPWR VPWR sky130_fd_sc_hd__decap_12
XFILLER_14_233 VGND VGND VPWR VPWR sky130_fd_sc_hd__decap_12
XFILLER_14_277 VGND VGND VPWR VPWR sky130_fd_sc_hd__decap_12
XFILLER_1_181 VGND VGND VPWR VPWR sky130_fd_sc_hd__decap_12
XFILLER_64_144 VGND VGND VPWR VPWR sky130_fd_sc_hd__decap_12
XFILLER_45_391 VGND VGND VPWR VPWR sky130_fd_sc_hd__fill_1
XFILLER_9_281 VGND VGND VPWR VPWR sky130_fd_sc_hd__decap_12
XFILLER_55_111 VGND VGND VPWR VPWR sky130_fd_sc_hd__fill_1
XFILLER_43_317 VGND VGND VPWR VPWR sky130_fd_sc_hd__decap_12
XFILLER_51_361 VGND VGND VPWR VPWR sky130_fd_sc_hd__decap_12
XFILLER_11_225 VGND VGND VPWR VPWR sky130_fd_sc_hd__decap_12
XFILLER_1_3 VGND VGND VPWR VPWR sky130_fd_sc_hd__decap_12
XFILLER_46_133 VGND VGND VPWR VPWR sky130_fd_sc_hd__decap_6
XFILLER_61_169 VGND VGND VPWR VPWR sky130_fd_sc_hd__decap_12
XFILLER_61_125 VGND VGND VPWR VPWR sky130_fd_sc_hd__decap_12