* NGSPICE file created from PrimitiveCalculator.ext - technology: sky130A

* Black-box entry subcircuit for sky130_fd_sc_hd__decap_8 abstract view
.subckt sky130_fd_sc_hd__decap_8 VGND VNB VPB VPWR
.ends

* Black-box entry subcircuit for sky130_fd_sc_hd__tapvpwrvgnd_1 abstract view
.subckt sky130_fd_sc_hd__tapvpwrvgnd_1 VGND VPWR
.ends

* Black-box entry subcircuit for sky130_fd_sc_hd__decap_12 abstract view
.subckt sky130_fd_sc_hd__decap_12 VGND VNB VPB VPWR
.ends

* Black-box entry subcircuit for sky130_fd_sc_hd__decap_4 abstract view
.subckt sky130_fd_sc_hd__decap_4 VGND VNB VPB VPWR
.ends

* Black-box entry subcircuit for sky130_fd_sc_hd__and2_1 abstract view
.subckt sky130_fd_sc_hd__and2_1 A B VGND VNB VPB VPWR X
.ends

* Black-box entry subcircuit for sky130_fd_sc_hd__nor2_1 abstract view
.subckt sky130_fd_sc_hd__nor2_1 A B VGND VNB VPB VPWR Y
.ends

* Black-box entry subcircuit for sky130_fd_sc_hd__o211a_1 abstract view
.subckt sky130_fd_sc_hd__o211a_1 A1 A2 B1 C1 VGND VNB VPB VPWR X
.ends

* Black-box entry subcircuit for sky130_fd_sc_hd__a21o_1 abstract view
.subckt sky130_fd_sc_hd__a21o_1 A1 A2 B1 VGND VNB VPB VPWR X
.ends

* Black-box entry subcircuit for sky130_fd_sc_hd__clkbuf_1 abstract view
.subckt sky130_fd_sc_hd__clkbuf_1 A VGND VNB VPB VPWR X
.ends

* Black-box entry subcircuit for sky130_fd_sc_hd__decap_6 abstract view
.subckt sky130_fd_sc_hd__decap_6 VGND VNB VPB VPWR
.ends

* Black-box entry subcircuit for sky130_fd_sc_hd__fill_1 abstract view
.subckt sky130_fd_sc_hd__fill_1 VGND VNB VPB VPWR
.ends

* Black-box entry subcircuit for sky130_fd_sc_hd__and3_1 abstract view
.subckt sky130_fd_sc_hd__and3_1 A B C VGND VNB VPB VPWR X
.ends

* Black-box entry subcircuit for sky130_fd_sc_hd__a21oi_1 abstract view
.subckt sky130_fd_sc_hd__a21oi_1 A1 A2 B1 VGND VNB VPB VPWR Y
.ends

* Black-box entry subcircuit for sky130_fd_sc_hd__and3b_1 abstract view
.subckt sky130_fd_sc_hd__and3b_1 A_N B C VGND VNB VPB VPWR X
.ends

* Black-box entry subcircuit for sky130_fd_sc_hd__or4_1 abstract view
.subckt sky130_fd_sc_hd__or4_1 A B C D VGND VNB VPB VPWR X
.ends

* Black-box entry subcircuit for sky130_fd_sc_hd__fill_2 abstract view
.subckt sky130_fd_sc_hd__fill_2 VGND VNB VPB VPWR
.ends

* Black-box entry subcircuit for sky130_fd_sc_hd__a22o_1 abstract view
.subckt sky130_fd_sc_hd__a22o_1 A1 A2 B1 B2 VGND VNB VPB VPWR X
.ends

* Black-box entry subcircuit for sky130_fd_sc_hd__inv_2 abstract view
.subckt sky130_fd_sc_hd__inv_2 A VGND VNB VPB VPWR Y
.ends

* Black-box entry subcircuit for sky130_fd_sc_hd__dfxtp_1 abstract view
.subckt sky130_fd_sc_hd__dfxtp_1 CLK D VGND VNB VPB VPWR Q
.ends

* Black-box entry subcircuit for sky130_fd_sc_hd__clkbuf_4 abstract view
.subckt sky130_fd_sc_hd__clkbuf_4 A VGND VNB VPB VPWR X
.ends

* Black-box entry subcircuit for sky130_fd_sc_hd__buf_2 abstract view
.subckt sky130_fd_sc_hd__buf_2 A VGND VNB VPB VPWR X
.ends

* Black-box entry subcircuit for sky130_fd_sc_hd__dlymetal6s2s_1 abstract view
.subckt sky130_fd_sc_hd__dlymetal6s2s_1 A VGND VNB VPB VPWR X
.ends

* Black-box entry subcircuit for sky130_fd_sc_hd__nand2_1 abstract view
.subckt sky130_fd_sc_hd__nand2_1 A B VGND VNB VPB VPWR Y
.ends

* Black-box entry subcircuit for sky130_fd_sc_hd__nor3_1 abstract view
.subckt sky130_fd_sc_hd__nor3_1 A B C VGND VNB VPB VPWR Y
.ends

* Black-box entry subcircuit for sky130_fd_sc_hd__a32o_1 abstract view
.subckt sky130_fd_sc_hd__a32o_1 A1 A2 A3 B1 B2 VGND VNB VPB VPWR X
.ends

* Black-box entry subcircuit for sky130_fd_sc_hd__nor3_2 abstract view
.subckt sky130_fd_sc_hd__nor3_2 A B C VGND VNB VPB VPWR Y
.ends

* Black-box entry subcircuit for sky130_fd_sc_hd__decap_3 abstract view
.subckt sky130_fd_sc_hd__decap_3 VGND VNB VPB VPWR
.ends

* Black-box entry subcircuit for sky130_fd_sc_hd__clkbuf_2 abstract view
.subckt sky130_fd_sc_hd__clkbuf_2 A VGND VNB VPB VPWR X
.ends

* Black-box entry subcircuit for sky130_fd_sc_hd__mux2_1 abstract view
.subckt sky130_fd_sc_hd__mux2_1 A0 A1 S VGND VNB VPB VPWR X
.ends

* Black-box entry subcircuit for sky130_fd_sc_hd__o311a_1 abstract view
.subckt sky130_fd_sc_hd__o311a_1 A1 A2 A3 B1 C1 VGND VNB VPB VPWR X
.ends

* Black-box entry subcircuit for sky130_fd_sc_hd__dfxtp_2 abstract view
.subckt sky130_fd_sc_hd__dfxtp_2 CLK D VGND VNB VPB VPWR Q
.ends

* Black-box entry subcircuit for sky130_fd_sc_hd__o21ai_1 abstract view
.subckt sky130_fd_sc_hd__o21ai_1 A1 A2 B1 VGND VNB VPB VPWR Y
.ends

* Black-box entry subcircuit for sky130_fd_sc_hd__o21a_1 abstract view
.subckt sky130_fd_sc_hd__o21a_1 A1 A2 B1 VGND VNB VPB VPWR X
.ends

* Black-box entry subcircuit for sky130_fd_sc_hd__dlxtn_1 abstract view
.subckt sky130_fd_sc_hd__dlxtn_1 D GATE_N VGND VNB VPB VPWR Q
.ends

* Black-box entry subcircuit for sky130_fd_sc_hd__or3_1 abstract view
.subckt sky130_fd_sc_hd__or3_1 A B C VGND VNB VPB VPWR X
.ends

* Black-box entry subcircuit for sky130_fd_sc_hd__xnor2_1 abstract view
.subckt sky130_fd_sc_hd__xnor2_1 A B VGND VNB VPB VPWR Y
.ends

* Black-box entry subcircuit for sky130_fd_sc_hd__nor3b_1 abstract view
.subckt sky130_fd_sc_hd__nor3b_1 A B C_N VGND VNB VPB VPWR Y
.ends

* Black-box entry subcircuit for sky130_fd_sc_hd__xor2_1 abstract view
.subckt sky130_fd_sc_hd__xor2_1 A B VGND VNB VPB VPWR X
.ends

* Black-box entry subcircuit for sky130_fd_sc_hd__a31oi_2 abstract view
.subckt sky130_fd_sc_hd__a31oi_2 A1 A2 A3 B1 VGND VNB VPB VPWR Y
.ends

* Black-box entry subcircuit for sky130_fd_sc_hd__o22ai_1 abstract view
.subckt sky130_fd_sc_hd__o22ai_1 A1 A2 B1 B2 VGND VNB VPB VPWR Y
.ends

* Black-box entry subcircuit for sky130_fd_sc_hd__o221a_1 abstract view
.subckt sky130_fd_sc_hd__o221a_1 A1 A2 B1 B2 C1 VGND VNB VPB VPWR X
.ends

* Black-box entry subcircuit for sky130_fd_sc_hd__nor2_2 abstract view
.subckt sky130_fd_sc_hd__nor2_2 A B VGND VNB VPB VPWR Y
.ends

* Black-box entry subcircuit for sky130_fd_sc_hd__or2b_1 abstract view
.subckt sky130_fd_sc_hd__or2b_1 A B_N VGND VNB VPB VPWR X
.ends

* Black-box entry subcircuit for sky130_fd_sc_hd__a311o_1 abstract view
.subckt sky130_fd_sc_hd__a311o_1 A1 A2 A3 B1 C1 VGND VNB VPB VPWR X
.ends

* Black-box entry subcircuit for sky130_fd_sc_hd__or2_1 abstract view
.subckt sky130_fd_sc_hd__or2_1 A B VGND VNB VPB VPWR X
.ends

* Black-box entry subcircuit for sky130_fd_sc_hd__a211o_1 abstract view
.subckt sky130_fd_sc_hd__a211o_1 A1 A2 B1 C1 VGND VNB VPB VPWR X
.ends

* Black-box entry subcircuit for sky130_fd_sc_hd__o31a_2 abstract view
.subckt sky130_fd_sc_hd__o31a_2 A1 A2 A3 B1 VGND VNB VPB VPWR X
.ends

* Black-box entry subcircuit for sky130_fd_sc_hd__a211oi_1 abstract view
.subckt sky130_fd_sc_hd__a211oi_1 A1 A2 B1 C1 VGND VNB VPB VPWR Y
.ends

* Black-box entry subcircuit for sky130_fd_sc_hd__a31o_1 abstract view
.subckt sky130_fd_sc_hd__a31o_1 A1 A2 A3 B1 VGND VNB VPB VPWR X
.ends

* Black-box entry subcircuit for sky130_fd_sc_hd__o2bb2a_1 abstract view
.subckt sky130_fd_sc_hd__o2bb2a_1 A1_N A2_N B1 B2 VGND VNB VPB VPWR X
.ends

* Black-box entry subcircuit for sky130_fd_sc_hd__o21ai_2 abstract view
.subckt sky130_fd_sc_hd__o21ai_2 A1 A2 B1 VGND VNB VPB VPWR Y
.ends

* Black-box entry subcircuit for sky130_fd_sc_hd__dlxtn_2 abstract view
.subckt sky130_fd_sc_hd__dlxtn_2 D GATE_N VGND VNB VPB VPWR Q
.ends

* Black-box entry subcircuit for sky130_fd_sc_hd__and4_1 abstract view
.subckt sky130_fd_sc_hd__and4_1 A B C D VGND VNB VPB VPWR X
.ends

* Black-box entry subcircuit for sky130_fd_sc_hd__dfxtp_4 abstract view
.subckt sky130_fd_sc_hd__dfxtp_4 CLK D VGND VNB VPB VPWR Q
.ends

* Black-box entry subcircuit for sky130_fd_sc_hd__clkinv_2 abstract view
.subckt sky130_fd_sc_hd__clkinv_2 A VGND VNB VPB VPWR Y
.ends

* Black-box entry subcircuit for sky130_fd_sc_hd__and2b_1 abstract view
.subckt sky130_fd_sc_hd__and2b_1 A_N B VGND VNB VPB VPWR X
.ends

* Black-box entry subcircuit for sky130_fd_sc_hd__xnor2_2 abstract view
.subckt sky130_fd_sc_hd__xnor2_2 A B VGND VNB VPB VPWR Y
.ends

* Black-box entry subcircuit for sky130_fd_sc_hd__a31o_4 abstract view
.subckt sky130_fd_sc_hd__a31o_4 A1 A2 A3 B1 VGND VNB VPB VPWR X
.ends

* Black-box entry subcircuit for sky130_fd_sc_hd__a221o_1 abstract view
.subckt sky130_fd_sc_hd__a221o_1 A1 A2 B1 B2 C1 VGND VNB VPB VPWR X
.ends

* Black-box entry subcircuit for sky130_fd_sc_hd__clkbuf_16 abstract view
.subckt sky130_fd_sc_hd__clkbuf_16 A VGND VNB VPB VPWR X
.ends

* Black-box entry subcircuit for sky130_fd_sc_hd__xor2_2 abstract view
.subckt sky130_fd_sc_hd__xor2_2 A B VGND VNB VPB VPWR X
.ends

* Black-box entry subcircuit for sky130_fd_sc_hd__o31ai_2 abstract view
.subckt sky130_fd_sc_hd__o31ai_2 A1 A2 A3 B1 VGND VNB VPB VPWR Y
.ends

* Black-box entry subcircuit for sky130_fd_sc_hd__a21oi_2 abstract view
.subckt sky130_fd_sc_hd__a21oi_2 A1 A2 B1 VGND VNB VPB VPWR Y
.ends

* Black-box entry subcircuit for sky130_fd_sc_hd__a21bo_1 abstract view
.subckt sky130_fd_sc_hd__a21bo_1 A1 A2 B1_N VGND VNB VPB VPWR X
.ends

* Black-box entry subcircuit for sky130_fd_sc_hd__nand2_4 abstract view
.subckt sky130_fd_sc_hd__nand2_4 A B VGND VNB VPB VPWR Y
.ends

* Black-box entry subcircuit for sky130_fd_sc_hd__a311o_2 abstract view
.subckt sky130_fd_sc_hd__a311o_2 A1 A2 A3 B1 C1 VGND VNB VPB VPWR X
.ends

* Black-box entry subcircuit for sky130_fd_sc_hd__a221oi_2 abstract view
.subckt sky130_fd_sc_hd__a221oi_2 A1 A2 B1 B2 C1 VGND VNB VPB VPWR Y
.ends

* Black-box entry subcircuit for sky130_fd_sc_hd__or4b_1 abstract view
.subckt sky130_fd_sc_hd__or4b_1 A B C D_N VGND VNB VPB VPWR X
.ends

* Black-box entry subcircuit for sky130_fd_sc_hd__o22a_1 abstract view
.subckt sky130_fd_sc_hd__o22a_1 A1 A2 B1 B2 VGND VNB VPB VPWR X
.ends

* Black-box entry subcircuit for sky130_fd_sc_hd__a221oi_1 abstract view
.subckt sky130_fd_sc_hd__a221oi_1 A1 A2 B1 B2 C1 VGND VNB VPB VPWR Y
.ends

* Black-box entry subcircuit for sky130_fd_sc_hd__or3_2 abstract view
.subckt sky130_fd_sc_hd__or3_2 A B C VGND VNB VPB VPWR X
.ends

* Black-box entry subcircuit for sky130_fd_sc_hd__nand3_1 abstract view
.subckt sky130_fd_sc_hd__nand3_1 A B C VGND VNB VPB VPWR Y
.ends

* Black-box entry subcircuit for sky130_fd_sc_hd__o41a_1 abstract view
.subckt sky130_fd_sc_hd__o41a_1 A1 A2 A3 A4 B1 VGND VNB VPB VPWR X
.ends

* Black-box entry subcircuit for sky130_fd_sc_hd__nand2_2 abstract view
.subckt sky130_fd_sc_hd__nand2_2 A B VGND VNB VPB VPWR Y
.ends

* Black-box entry subcircuit for sky130_fd_sc_hd__a22o_2 abstract view
.subckt sky130_fd_sc_hd__a22o_2 A1 A2 B1 B2 VGND VNB VPB VPWR X
.ends

* Black-box entry subcircuit for sky130_fd_sc_hd__o21bai_1 abstract view
.subckt sky130_fd_sc_hd__o21bai_1 A1 A2 B1_N VGND VNB VPB VPWR Y
.ends

* Black-box entry subcircuit for sky130_fd_sc_hd__nand3b_1 abstract view
.subckt sky130_fd_sc_hd__nand3b_1 A_N B C VGND VNB VPB VPWR Y
.ends

* Black-box entry subcircuit for sky130_fd_sc_hd__a41o_1 abstract view
.subckt sky130_fd_sc_hd__a41o_1 A1 A2 A3 A4 B1 VGND VNB VPB VPWR X
.ends

* Black-box entry subcircuit for sky130_fd_sc_hd__a311oi_4 abstract view
.subckt sky130_fd_sc_hd__a311oi_4 A1 A2 A3 B1 C1 VGND VNB VPB VPWR Y
.ends

* Black-box entry subcircuit for sky130_fd_sc_hd__and2_2 abstract view
.subckt sky130_fd_sc_hd__and2_2 A B VGND VNB VPB VPWR X
.ends

* Black-box entry subcircuit for sky130_fd_sc_hd__and4b_1 abstract view
.subckt sky130_fd_sc_hd__and4b_1 A_N B C D VGND VNB VPB VPWR X
.ends

* Black-box entry subcircuit for sky130_fd_sc_hd__a31oi_1 abstract view
.subckt sky130_fd_sc_hd__a31oi_1 A1 A2 A3 B1 VGND VNB VPB VPWR Y
.ends

* Black-box entry subcircuit for sky130_fd_sc_hd__a211oi_2 abstract view
.subckt sky130_fd_sc_hd__a211oi_2 A1 A2 B1 C1 VGND VNB VPB VPWR Y
.ends

* Black-box entry subcircuit for sky130_fd_sc_hd__o21ba_1 abstract view
.subckt sky130_fd_sc_hd__o21ba_1 A1 A2 B1_N VGND VNB VPB VPWR X
.ends

* Black-box entry subcircuit for sky130_fd_sc_hd__o221ai_4 abstract view
.subckt sky130_fd_sc_hd__o221ai_4 A1 A2 B1 B2 C1 VGND VNB VPB VPWR Y
.ends

* Black-box entry subcircuit for sky130_fd_sc_hd__a2111o_1 abstract view
.subckt sky130_fd_sc_hd__a2111o_1 A1 A2 B1 C1 D1 VGND VNB VPB VPWR X
.ends

* Black-box entry subcircuit for sky130_fd_sc_hd__dlxtp_1 abstract view
.subckt sky130_fd_sc_hd__dlxtp_1 D GATE VGND VNB VPB VPWR Q
.ends

* Black-box entry subcircuit for sky130_fd_sc_hd__o22ai_2 abstract view
.subckt sky130_fd_sc_hd__o22ai_2 A1 A2 B1 B2 VGND VNB VPB VPWR Y
.ends

* Black-box entry subcircuit for sky130_fd_sc_hd__xnor2_4 abstract view
.subckt sky130_fd_sc_hd__xnor2_4 A B VGND VNB VPB VPWR Y
.ends

* Black-box entry subcircuit for sky130_fd_sc_hd__nand4_2 abstract view
.subckt sky130_fd_sc_hd__nand4_2 A B C D VGND VNB VPB VPWR Y
.ends

* Black-box entry subcircuit for sky130_fd_sc_hd__and4bb_1 abstract view
.subckt sky130_fd_sc_hd__and4bb_1 A_N B_N C D VGND VNB VPB VPWR X
.ends

* Black-box entry subcircuit for sky130_fd_sc_hd__o211ai_2 abstract view
.subckt sky130_fd_sc_hd__o211ai_2 A1 A2 B1 C1 VGND VNB VPB VPWR Y
.ends

* Black-box entry subcircuit for sky130_fd_sc_hd__mux2_2 abstract view
.subckt sky130_fd_sc_hd__mux2_2 A0 A1 S VGND VNB VPB VPWR X
.ends

* Black-box entry subcircuit for sky130_fd_sc_hd__o2111a_1 abstract view
.subckt sky130_fd_sc_hd__o2111a_1 A1 A2 B1 C1 D1 VGND VNB VPB VPWR X
.ends

* Black-box entry subcircuit for sky130_fd_sc_hd__o211ai_4 abstract view
.subckt sky130_fd_sc_hd__o211ai_4 A1 A2 B1 C1 VGND VNB VPB VPWR Y
.ends

* Black-box entry subcircuit for sky130_fd_sc_hd__diode_2 abstract view
.subckt sky130_fd_sc_hd__diode_2 DIODE VGND VNB VPB VPWR
.ends

* Black-box entry subcircuit for sky130_fd_sc_hd__or3b_1 abstract view
.subckt sky130_fd_sc_hd__or3b_1 A B C_N VGND VNB VPB VPWR X
.ends

* Black-box entry subcircuit for sky130_fd_sc_hd__a21oi_4 abstract view
.subckt sky130_fd_sc_hd__a21oi_4 A1 A2 B1 VGND VNB VPB VPWR Y
.ends

* Black-box entry subcircuit for sky130_fd_sc_hd__o31a_1 abstract view
.subckt sky130_fd_sc_hd__o31a_1 A1 A2 A3 B1 VGND VNB VPB VPWR X
.ends

.subckt PrimitiveCalculator VGND VPWR clk led_flag restart rotary_a rotary_b rst select
+ seven_segment_digit seven_segment_out[0] seven_segment_out[1] seven_segment_out[2]
+ seven_segment_out[3] seven_segment_out[4] seven_segment_out[5] seven_segment_out[6]
XFILLER_36_19 VGND VGND VPWR VPWR sky130_fd_sc_hd__decap_8
XTAP_188 VGND VPWR sky130_fd_sc_hd__tapvpwrvgnd_1
XTAP_177 VGND VPWR sky130_fd_sc_hd__tapvpwrvgnd_1
XTAP_199 VGND VPWR sky130_fd_sc_hd__tapvpwrvgnd_1
XFILLER_52_29 VGND VGND VPWR VPWR sky130_fd_sc_hd__decap_12
XFILLER_60_217 VGND VGND VPWR VPWR sky130_fd_sc_hd__decap_12
XFILLER_45_225 VGND VGND VPWR VPWR sky130_fd_sc_hd__decap_4
XFILLER_45_203 VGND VGND VPWR VPWR sky130_fd_sc_hd__decap_4
XFILLER_26_85 VGND VGND VPWR VPWR sky130_fd_sc_hd__decap_8
XFILLER_26_41 VGND VGND VPWR VPWR sky130_fd_sc_hd__decap_12
XFILLER_9_137 VGND VGND VPWR VPWR sky130_fd_sc_hd__decap_12
X_1270_ _1270_/A _1270_/B VGND VGND VPWR VPWR _1271_/B sky130_fd_sc_hd__and2_1
XFILLER_51_239 VGND VGND VPWR VPWR sky130_fd_sc_hd__decap_4
XFILLER_44_291 VGND VGND VPWR VPWR sky130_fd_sc_hd__decap_4
XFILLER_44_280 VGND VGND VPWR VPWR sky130_fd_sc_hd__decap_4
X_0985_ _0985_/A _0985_/B VGND VGND VPWR VPWR _1028_/A sky130_fd_sc_hd__nor2_1
X_1606_ _1603_/A _1588_/X _1605_/Y _1599_/X VGND VGND VPWR VPWR _1768_/D sky130_fd_sc_hd__o211a_1
X_1399_ _1399_/A _1399_/B VGND VGND VPWR VPWR _1400_/B sky130_fd_sc_hd__nor2_1
X_1468_ _1516_/A _1523_/A _1538_/B VGND VGND VPWR VPWR _1468_/X sky130_fd_sc_hd__a21o_1
X_1537_ _1537_/A VGND VGND VPWR VPWR _1820_/D sky130_fd_sc_hd__clkbuf_1
XFILLER_63_39 VGND VGND VPWR VPWR sky130_fd_sc_hd__decap_12
XFILLER_2_357 VGND VGND VPWR VPWR sky130_fd_sc_hd__decap_6
XFILLER_12_65 VGND VGND VPWR VPWR sky130_fd_sc_hd__decap_8
XFILLER_37_51 VGND VGND VPWR VPWR sky130_fd_sc_hd__decap_4
XFILLER_41_250 VGND VGND VPWR VPWR sky130_fd_sc_hd__fill_1
XFILLER_33_217 VGND VGND VPWR VPWR sky130_fd_sc_hd__decap_6
XFILLER_26_280 VGND VGND VPWR VPWR sky130_fd_sc_hd__decap_12
XFILLER_49_350 VGND VGND VPWR VPWR sky130_fd_sc_hd__decap_4
X_1253_ _1821_/Q _1282_/B _1253_/C VGND VGND VPWR VPWR _1253_/X sky130_fd_sc_hd__and3_1
X_1322_ _1426_/C _1323_/B _1446_/B VGND VGND VPWR VPWR _1322_/Y sky130_fd_sc_hd__a21oi_1
XFILLER_64_320 VGND VGND VPWR VPWR sky130_fd_sc_hd__decap_12
XFILLER_49_383 VGND VGND VPWR VPWR sky130_fd_sc_hd__fill_1
XFILLER_49_361 VGND VGND VPWR VPWR sky130_fd_sc_hd__decap_4
X_1184_ _1202_/A _1184_/B _1195_/A VGND VGND VPWR VPWR _1184_/X sky130_fd_sc_hd__and3b_1
XFILLER_17_291 VGND VGND VPWR VPWR sky130_fd_sc_hd__decap_12
X_0968_ _0968_/A _0968_/B _0968_/C _0968_/D VGND VGND VPWR VPWR _1004_/A sky130_fd_sc_hd__or4_1
XFILLER_32_261 VGND VGND VPWR VPWR sky130_fd_sc_hd__decap_8
XFILLER_20_401 VGND VGND VPWR VPWR sky130_fd_sc_hd__decap_6
X_0899_ _1830_/Q _1831_/Q VGND VGND VPWR VPWR _0921_/B sky130_fd_sc_hd__nor2_1
XFILLER_59_169 VGND VGND VPWR VPWR sky130_fd_sc_hd__decap_12
XFILLER_59_125 VGND VGND VPWR VPWR sky130_fd_sc_hd__decap_12
XFILLER_15_239 VGND VGND VPWR VPWR sky130_fd_sc_hd__decap_12
XFILLER_7_405 VGND VGND VPWR VPWR sky130_fd_sc_hd__fill_2
XFILLER_38_309 VGND VGND VPWR VPWR sky130_fd_sc_hd__fill_1
XFILLER_2_165 VGND VGND VPWR VPWR sky130_fd_sc_hd__decap_12
XFILLER_2_121 VGND VGND VPWR VPWR sky130_fd_sc_hd__decap_12
XFILLER_48_83 VGND VGND VPWR VPWR sky130_fd_sc_hd__fill_1
XFILLER_46_342 VGND VGND VPWR VPWR sky130_fd_sc_hd__decap_8
XFILLER_46_320 VGND VGND VPWR VPWR sky130_fd_sc_hd__decap_4
XFILLER_0_57 VGND VGND VPWR VPWR sky130_fd_sc_hd__decap_12
XFILLER_9_55 VGND VGND VPWR VPWR sky130_fd_sc_hd__fill_1
XFILLER_50_3 VGND VGND VPWR VPWR sky130_fd_sc_hd__decap_12
XFILLER_56_139 VGND VGND VPWR VPWR sky130_fd_sc_hd__fill_1
X_1305_ _1821_/Q _1282_/B _1348_/D _1388_/B VGND VGND VPWR VPWR _1305_/X sky130_fd_sc_hd__a22o_1
XFILLER_37_331 VGND VGND VPWR VPWR sky130_fd_sc_hd__decap_4
X_1236_ _1246_/B _1263_/B VGND VGND VPWR VPWR _1238_/A sky130_fd_sc_hd__nor2_1
X_1098_ _1142_/A _1142_/B _1098_/C _1098_/D VGND VGND VPWR VPWR _1100_/A sky130_fd_sc_hd__or4_1
X_1167_ input4/X VGND VGND VPWR VPWR _1727_/B sky130_fd_sc_hd__inv_2
XFILLER_60_29 VGND VGND VPWR VPWR sky130_fd_sc_hd__decap_12
XFILLER_62_109 VGND VGND VPWR VPWR sky130_fd_sc_hd__decap_12
XFILLER_43_312 VGND VGND VPWR VPWR sky130_fd_sc_hd__decap_4
XFILLER_28_353 VGND VGND VPWR VPWR sky130_fd_sc_hd__decap_8
XFILLER_28_331 VGND VGND VPWR VPWR sky130_fd_sc_hd__decap_6
XFILLER_18_53 VGND VGND VPWR VPWR sky130_fd_sc_hd__decap_12
XFILLER_34_85 VGND VGND VPWR VPWR sky130_fd_sc_hd__decap_4
XFILLER_34_41 VGND VGND VPWR VPWR sky130_fd_sc_hd__decap_12
XTAP_507 VGND VPWR sky130_fd_sc_hd__tapvpwrvgnd_1
XFILLER_7_279 VGND VGND VPWR VPWR sky130_fd_sc_hd__fill_1
XFILLER_59_93 VGND VGND VPWR VPWR sky130_fd_sc_hd__decap_12
XTAP_529 VGND VPWR sky130_fd_sc_hd__tapvpwrvgnd_1
XTAP_518 VGND VPWR sky130_fd_sc_hd__tapvpwrvgnd_1
XFILLER_38_139 VGND VGND VPWR VPWR sky130_fd_sc_hd__fill_1
X_1021_ _1057_/A _1057_/B _1392_/B VGND VGND VPWR VPWR _1059_/B sky130_fd_sc_hd__a21o_1
XFILLER_34_345 VGND VGND VPWR VPWR sky130_fd_sc_hd__decap_4
X_1785_ _1839_/CLK _1785_/D VGND VGND VPWR VPWR _1785_/Q sky130_fd_sc_hd__dfxtp_1
X_1854_ _1816_/Q _1854_/D VGND VGND VPWR VPWR _1854_/Q sky130_fd_sc_hd__dfxtp_1
X_1219_ _1388_/B VGND VGND VPWR VPWR _1426_/A sky130_fd_sc_hd__clkbuf_4
XFILLER_44_109 VGND VGND VPWR VPWR sky130_fd_sc_hd__decap_12
XFILLER_37_161 VGND VGND VPWR VPWR sky130_fd_sc_hd__decap_6
XFILLER_29_106 VGND VGND VPWR VPWR sky130_fd_sc_hd__decap_6
XFILLER_45_51 VGND VGND VPWR VPWR sky130_fd_sc_hd__decap_4
XFILLER_43_164 VGND VGND VPWR VPWR sky130_fd_sc_hd__decap_4
XFILLER_31_326 VGND VGND VPWR VPWR sky130_fd_sc_hd__decap_8
XFILLER_31_315 VGND VGND VPWR VPWR sky130_fd_sc_hd__decap_6
XFILLER_28_183 VGND VGND VPWR VPWR sky130_fd_sc_hd__decap_4
XFILLER_16_345 VGND VGND VPWR VPWR sky130_fd_sc_hd__decap_12
XFILLER_16_389 VGND VGND VPWR VPWR sky130_fd_sc_hd__decap_12
XFILLER_43_197 VGND VGND VPWR VPWR sky130_fd_sc_hd__decap_4
XTAP_348 VGND VPWR sky130_fd_sc_hd__tapvpwrvgnd_1
XTAP_337 VGND VPWR sky130_fd_sc_hd__tapvpwrvgnd_1
XTAP_326 VGND VPWR sky130_fd_sc_hd__tapvpwrvgnd_1
XTAP_315 VGND VPWR sky130_fd_sc_hd__tapvpwrvgnd_1
XFILLER_3_293 VGND VGND VPWR VPWR sky130_fd_sc_hd__decap_12
X_1570_ _1570_/A VGND VGND VPWR VPWR _1760_/D sky130_fd_sc_hd__clkbuf_1
XTAP_304 VGND VPWR sky130_fd_sc_hd__tapvpwrvgnd_1
XTAP_359 VGND VPWR sky130_fd_sc_hd__tapvpwrvgnd_1
XFILLER_13_3 VGND VGND VPWR VPWR sky130_fd_sc_hd__decap_12
XFILLER_19_172 VGND VGND VPWR VPWR sky130_fd_sc_hd__decap_4
X_1004_ _1004_/A _1004_/B VGND VGND VPWR VPWR _1006_/B sky130_fd_sc_hd__and2_1
X_1837_ _1837_/CLK _1837_/D VGND VGND VPWR VPWR _1837_/Q sky130_fd_sc_hd__dfxtp_1
X_1768_ _1816_/Q _1768_/D VGND VGND VPWR VPWR _1768_/Q sky130_fd_sc_hd__dfxtp_1
XFILLER_57_234 VGND VGND VPWR VPWR sky130_fd_sc_hd__decap_12
X_1699_ _1697_/X _1698_/X _1803_/Q _1456_/A VGND VGND VPWR VPWR _1699_/X sky130_fd_sc_hd__o211a_1
XFILLER_13_337 VGND VGND VPWR VPWR sky130_fd_sc_hd__decap_12
XFILLER_31_97 VGND VGND VPWR VPWR sky130_fd_sc_hd__fill_1
Xoutput7 _1835_/Q VGND VGND VPWR VPWR seven_segment_digit sky130_fd_sc_hd__buf_2
XFILLER_63_237 VGND VGND VPWR VPWR sky130_fd_sc_hd__decap_12
XFILLER_56_83 VGND VGND VPWR VPWR sky130_fd_sc_hd__fill_1
XFILLER_48_234 VGND VGND VPWR VPWR sky130_fd_sc_hd__fill_1
XFILLER_16_186 VGND VGND VPWR VPWR sky130_fd_sc_hd__decap_8
X_1622_ _1619_/X _1620_/X _1621_/Y VGND VGND VPWR VPWR _1622_/X sky130_fd_sc_hd__a21o_1
XFILLER_8_363 VGND VGND VPWR VPWR sky130_fd_sc_hd__fill_1
X_1553_ _1553_/A VGND VGND VPWR VPWR _1804_/D sky130_fd_sc_hd__clkbuf_1
XTAP_178 VGND VPWR sky130_fd_sc_hd__tapvpwrvgnd_1
XTAP_167 VGND VPWR sky130_fd_sc_hd__tapvpwrvgnd_1
XTAP_156 VGND VPWR sky130_fd_sc_hd__tapvpwrvgnd_1
XTAP_145 VGND VPWR sky130_fd_sc_hd__tapvpwrvgnd_1
XTAP_134 VGND VPWR sky130_fd_sc_hd__tapvpwrvgnd_1
XTAP_189 VGND VPWR sky130_fd_sc_hd__tapvpwrvgnd_1
X_1484_ _1512_/B VGND VGND VPWR VPWR _1505_/B sky130_fd_sc_hd__dlymetal6s2s_1
XFILLER_54_248 VGND VGND VPWR VPWR sky130_fd_sc_hd__decap_4
XFILLER_54_204 VGND VGND VPWR VPWR sky130_fd_sc_hd__decap_8
XFILLER_39_278 VGND VGND VPWR VPWR sky130_fd_sc_hd__fill_2
XFILLER_62_270 VGND VGND VPWR VPWR sky130_fd_sc_hd__fill_2
XFILLER_10_307 VGND VGND VPWR VPWR sky130_fd_sc_hd__fill_1
XFILLER_22_167 VGND VGND VPWR VPWR sky130_fd_sc_hd__decap_8
XFILLER_45_215 VGND VGND VPWR VPWR sky130_fd_sc_hd__fill_1
XFILLER_60_229 VGND VGND VPWR VPWR sky130_fd_sc_hd__decap_12
XFILLER_26_53 VGND VGND VPWR VPWR sky130_fd_sc_hd__decap_12
XFILLER_13_101 VGND VGND VPWR VPWR sky130_fd_sc_hd__decap_4
XFILLER_13_156 VGND VGND VPWR VPWR sky130_fd_sc_hd__decap_4
XFILLER_42_85 VGND VGND VPWR VPWR sky130_fd_sc_hd__decap_12
XFILLER_42_41 VGND VGND VPWR VPWR sky130_fd_sc_hd__decap_12
XFILLER_9_149 VGND VGND VPWR VPWR sky130_fd_sc_hd__decap_12
XFILLER_3_57 VGND VGND VPWR VPWR sky130_fd_sc_hd__decap_12
XFILLER_36_248 VGND VGND VPWR VPWR sky130_fd_sc_hd__decap_4
XFILLER_36_226 VGND VGND VPWR VPWR sky130_fd_sc_hd__decap_8
X_0984_ _1244_/A _0983_/X _0947_/Y VGND VGND VPWR VPWR _0985_/B sky130_fd_sc_hd__a21o_1
X_1605_ _1628_/A _1605_/B VGND VGND VPWR VPWR _1605_/Y sky130_fd_sc_hd__nand2_1
X_1536_ _1536_/A _1538_/B VGND VGND VPWR VPWR _1537_/A sky130_fd_sc_hd__and2_1
X_1398_ _1398_/A _1398_/B _1398_/C VGND VGND VPWR VPWR _1399_/B sky130_fd_sc_hd__nor3_1
X_1467_ _1540_/A VGND VGND VPWR VPWR _1538_/B sky130_fd_sc_hd__clkbuf_1
XFILLER_50_251 VGND VGND VPWR VPWR sky130_fd_sc_hd__fill_1
XFILLER_35_292 VGND VGND VPWR VPWR sky130_fd_sc_hd__decap_6
XFILLER_35_281 VGND VGND VPWR VPWR sky130_fd_sc_hd__decap_4
XFILLER_27_237 VGND VGND VPWR VPWR sky130_fd_sc_hd__decap_6
XFILLER_58_340 VGND VGND VPWR VPWR sky130_fd_sc_hd__decap_4
XFILLER_53_51 VGND VGND VPWR VPWR sky130_fd_sc_hd__decap_4
XFILLER_26_292 VGND VGND VPWR VPWR sky130_fd_sc_hd__decap_12
X_1252_ _1388_/B _1304_/B VGND VGND VPWR VPWR _1255_/A sky130_fd_sc_hd__nand2_1
X_1321_ _1210_/X _1293_/Y _1294_/X _1320_/X _1195_/X VGND VGND VPWR VPWR _1321_/X
+ sky130_fd_sc_hd__a32o_1
XFILLER_1_391 VGND VGND VPWR VPWR sky130_fd_sc_hd__fill_1
XFILLER_64_332 VGND VGND VPWR VPWR sky130_fd_sc_hd__decap_4
X_1183_ _1183_/A _1806_/Q VGND VGND VPWR VPWR _1195_/A sky130_fd_sc_hd__nor2_1
X_0967_ _1162_/A _1823_/Q VGND VGND VPWR VPWR _0968_/D sky130_fd_sc_hd__and2_1
XFILLER_32_284 VGND VGND VPWR VPWR sky130_fd_sc_hd__decap_8
XFILLER_59_137 VGND VGND VPWR VPWR sky130_fd_sc_hd__decap_12
XFILLER_58_29 VGND VGND VPWR VPWR sky130_fd_sc_hd__decap_12
X_0898_ _1833_/Q _1832_/Q _1834_/Q VGND VGND VPWR VPWR _0921_/A sky130_fd_sc_hd__nor3_2
X_1519_ _1536_/A _1532_/B _1523_/A VGND VGND VPWR VPWR _1520_/A sky130_fd_sc_hd__and3_1
XFILLER_55_332 VGND VGND VPWR VPWR sky130_fd_sc_hd__decap_4
XFILLER_2_177 VGND VGND VPWR VPWR sky130_fd_sc_hd__decap_12
XFILLER_2_133 VGND VGND VPWR VPWR sky130_fd_sc_hd__decap_6
XFILLER_61_302 VGND VGND VPWR VPWR sky130_fd_sc_hd__decap_4
XFILLER_46_387 VGND VGND VPWR VPWR sky130_fd_sc_hd__decap_4
XFILLER_46_376 VGND VGND VPWR VPWR sky130_fd_sc_hd__decap_4
XFILLER_0_69 VGND VGND VPWR VPWR sky130_fd_sc_hd__decap_12
XFILLER_14_251 VGND VGND VPWR VPWR sky130_fd_sc_hd__fill_1
XFILLER_43_3 VGND VGND VPWR VPWR sky130_fd_sc_hd__decap_12
X_1304_ _1347_/A _1304_/B VGND VGND VPWR VPWR _1346_/A sky130_fd_sc_hd__nand2_1
XFILLER_37_376 VGND VGND VPWR VPWR sky130_fd_sc_hd__decap_4
X_1235_ _1235_/A _1235_/B VGND VGND VPWR VPWR _1263_/B sky130_fd_sc_hd__nor2_1
X_1166_ _1161_/X _1163_/Y _1708_/A VGND VGND VPWR VPWR _1786_/D sky130_fd_sc_hd__a21oi_1
X_1097_ _1146_/A _1146_/B _1411_/B VGND VGND VPWR VPWR _1098_/D sky130_fd_sc_hd__a21oi_1
XFILLER_52_335 VGND VGND VPWR VPWR sky130_fd_sc_hd__decap_4
XFILLER_52_313 VGND VGND VPWR VPWR sky130_fd_sc_hd__decap_4
XFILLER_20_243 VGND VGND VPWR VPWR sky130_fd_sc_hd__fill_1
XFILLER_43_357 VGND VGND VPWR VPWR sky130_fd_sc_hd__decap_4
XFILLER_43_346 VGND VGND VPWR VPWR sky130_fd_sc_hd__decap_4
XFILLER_43_335 VGND VGND VPWR VPWR sky130_fd_sc_hd__fill_1
XFILLER_43_302 VGND VGND VPWR VPWR sky130_fd_sc_hd__decap_4
XFILLER_28_365 VGND VGND VPWR VPWR sky130_fd_sc_hd__decap_12
XFILLER_18_65 VGND VGND VPWR VPWR sky130_fd_sc_hd__decap_12
XFILLER_50_41 VGND VGND VPWR VPWR sky130_fd_sc_hd__decap_12
XFILLER_34_53 VGND VGND VPWR VPWR sky130_fd_sc_hd__decap_12
XFILLER_7_225 VGND VGND VPWR VPWR sky130_fd_sc_hd__decap_12
XFILLER_11_221 VGND VGND VPWR VPWR sky130_fd_sc_hd__decap_3
XTAP_519 VGND VPWR sky130_fd_sc_hd__tapvpwrvgnd_1
XTAP_508 VGND VPWR sky130_fd_sc_hd__tapvpwrvgnd_1
XFILLER_50_85 VGND VGND VPWR VPWR sky130_fd_sc_hd__decap_12
X_1020_ _1020_/A VGND VGND VPWR VPWR _1392_/B sky130_fd_sc_hd__clkbuf_2
XFILLER_42_390 VGND VGND VPWR VPWR sky130_fd_sc_hd__decap_3
X_1784_ _1837_/CLK _1784_/D VGND VGND VPWR VPWR _1784_/Q sky130_fd_sc_hd__dfxtp_1
X_1853_ _1816_/Q _1853_/D VGND VGND VPWR VPWR _1853_/Q sky130_fd_sc_hd__dfxtp_1
XFILLER_57_405 VGND VGND VPWR VPWR sky130_fd_sc_hd__fill_2
X_1149_ _1146_/Y _1148_/Y _1149_/S VGND VGND VPWR VPWR _1149_/X sky130_fd_sc_hd__mux2_1
XFILLER_52_121 VGND VGND VPWR VPWR sky130_fd_sc_hd__decap_12
X_1218_ _1193_/X _1194_/X _1211_/X _1214_/Y _1217_/X VGND VGND VPWR VPWR _1788_/D
+ sky130_fd_sc_hd__o311a_1
XFILLER_25_335 VGND VGND VPWR VPWR sky130_fd_sc_hd__fill_1
XFILLER_20_88 VGND VGND VPWR VPWR sky130_fd_sc_hd__decap_4
XFILLER_20_99 VGND VGND VPWR VPWR sky130_fd_sc_hd__decap_12
XFILLER_28_195 VGND VGND VPWR VPWR sky130_fd_sc_hd__fill_1
XFILLER_16_357 VGND VGND VPWR VPWR sky130_fd_sc_hd__decap_6
XFILLER_61_51 VGND VGND VPWR VPWR sky130_fd_sc_hd__decap_4
XTAP_349 VGND VPWR sky130_fd_sc_hd__tapvpwrvgnd_1
XTAP_338 VGND VPWR sky130_fd_sc_hd__tapvpwrvgnd_1
XTAP_327 VGND VPWR sky130_fd_sc_hd__tapvpwrvgnd_1
XTAP_316 VGND VPWR sky130_fd_sc_hd__tapvpwrvgnd_1
XFILLER_3_261 VGND VGND VPWR VPWR sky130_fd_sc_hd__decap_12
XTAP_305 VGND VPWR sky130_fd_sc_hd__tapvpwrvgnd_1
X_1003_ _1348_/D VGND VGND VPWR VPWR _1221_/B sky130_fd_sc_hd__buf_2
X_1767_ _1816_/Q _1767_/D VGND VGND VPWR VPWR _1807_/D sky130_fd_sc_hd__dfxtp_2
X_1836_ _1837_/CLK _1836_/D VGND VGND VPWR VPWR _1836_/Q sky130_fd_sc_hd__dfxtp_1
X_1698_ _1854_/Q _1855_/Q _1856_/Q _1857_/Q VGND VGND VPWR VPWR _1698_/X sky130_fd_sc_hd__or4_1
XFILLER_57_202 VGND VGND VPWR VPWR sky130_fd_sc_hd__decap_4
XFILLER_13_305 VGND VGND VPWR VPWR sky130_fd_sc_hd__decap_12
XFILLER_13_349 VGND VGND VPWR VPWR sky130_fd_sc_hd__decap_12
XFILLER_15_55 VGND VGND VPWR VPWR sky130_fd_sc_hd__fill_1
XFILLER_40_146 VGND VGND VPWR VPWR sky130_fd_sc_hd__decap_4
XFILLER_21_393 VGND VGND VPWR VPWR sky130_fd_sc_hd__decap_12
Xoutput10 _1506_/X VGND VGND VPWR VPWR seven_segment_out[2] sky130_fd_sc_hd__buf_2
XFILLER_0_253 VGND VGND VPWR VPWR sky130_fd_sc_hd__decap_12
Xoutput8 _1497_/X VGND VGND VPWR VPWR seven_segment_out[0] sky130_fd_sc_hd__buf_2
XFILLER_63_249 VGND VGND VPWR VPWR sky130_fd_sc_hd__fill_2
XFILLER_63_205 VGND VGND VPWR VPWR sky130_fd_sc_hd__decap_12
XFILLER_16_121 VGND VGND VPWR VPWR sky130_fd_sc_hd__decap_8
XFILLER_31_146 VGND VGND VPWR VPWR sky130_fd_sc_hd__decap_4
X_1552_ _1554_/A _1794_/Q _1556_/A VGND VGND VPWR VPWR _1553_/A sky130_fd_sc_hd__and3_1
X_1621_ _1619_/X _1620_/X _1596_/A VGND VGND VPWR VPWR _1621_/Y sky130_fd_sc_hd__o21ai_1
XTAP_179 VGND VPWR sky130_fd_sc_hd__tapvpwrvgnd_1
XTAP_168 VGND VPWR sky130_fd_sc_hd__tapvpwrvgnd_1
XTAP_157 VGND VPWR sky130_fd_sc_hd__tapvpwrvgnd_1
XTAP_135 VGND VPWR sky130_fd_sc_hd__tapvpwrvgnd_1
XTAP_146 VGND VPWR sky130_fd_sc_hd__tapvpwrvgnd_1
X_1483_ _1777_/Q _1708_/B _1482_/X VGND VGND VPWR VPWR _1512_/B sky130_fd_sc_hd__o21a_1
X_1819_ _1819_/D _0880_/X VGND VGND VPWR VPWR _1819_/Q sky130_fd_sc_hd__dlxtn_1
XFILLER_45_238 VGND VGND VPWR VPWR sky130_fd_sc_hd__decap_4
XFILLER_42_53 VGND VGND VPWR VPWR sky130_fd_sc_hd__decap_12
XFILLER_26_65 VGND VGND VPWR VPWR sky130_fd_sc_hd__decap_12
XFILLER_42_97 VGND VGND VPWR VPWR sky130_fd_sc_hd__decap_12
XFILLER_3_69 VGND VGND VPWR VPWR sky130_fd_sc_hd__decap_12
XFILLER_36_216 VGND VGND VPWR VPWR sky130_fd_sc_hd__decap_4
X_0983_ _1348_/C _0983_/B _0983_/C VGND VGND VPWR VPWR _0983_/X sky130_fd_sc_hd__or3_1
X_1604_ _1604_/A _1604_/B VGND VGND VPWR VPWR _1605_/B sky130_fd_sc_hd__xnor2_1
X_1535_ _1535_/A VGND VGND VPWR VPWR _1819_/D sky130_fd_sc_hd__clkbuf_1