*SPEF "ieee 1481-1999"
*DESIGN "PrimitiveCalculator"
*DATE "11:11:11 Fri 11 11, 1111"
*VENDOR "OpenRCX"
*PROGRAM "Parallel Extraction"
*VERSION "1.0"
*DESIGN_FLOW "NAME_SCOPE LOCAL" "PIN_CAP NONE"
*DIVIDER /
*DELIMITER :
*BUS_DELIMITER []
*T_UNIT 1 NS
*C_UNIT 1 PF
*R_UNIT 1 OHM
*L_UNIT 1 HENRY

*NAME_MAP
*3 clk
*4 led_flag
*5 restart
*6 rotary_a
*7 rotary_b
*8 rst
*9 select
*10 seven_segment_digit
*11 seven_segment_out[0]
*12 seven_segment_out[1]
*13 seven_segment_out[2]
*14 seven_segment_out[3]
*15 seven_segment_out[4]
*16 seven_segment_out[5]
*17 seven_segment_out[6]
*18 _0000_
*19 _0001_
*20 _0002_
*21 _0003_
*22 _0004_
*23 _0005_
*24 _0006_
*25 _0007_
*26 _0008_
*27 _0009_
*28 _0010_
*29 _0011_
*30 _0012_
*31 _0013_
*32 _0014_
*33 _0015_
*34 _0016_
*35 _0017_
*36 _0018_
*37 _0019_
*38 _0020_
*39 _0021_
*40 _0022_
*41 _0023_
*42 _0024_
*43 _0025_
*44 _0026_
*45 _0027_
*46 _0028_
*47 _0029_
*48 _0030_
*49 _0031_
*50 _0032_
*51 _0033_
*52 _0034_
*53 _0035_
*54 _0036_
*55 _0037_
*56 _0038_
*57 _0039_
*58 _0040_
*59 _0041_
*60 _0042_
*61 _0043_
*62 _0044_
*63 _0045_
*64 _0046_
*65 _0047_
*66 _0048_
*67 _0049_
*68 _0050_
*69 _0051_
*70 _0052_
*71 _0053_
*72 _0054_
*73 _0055_
*74 _0056_
*75 _0057_
*76 _0058_
*77 _0059_
*78 _0060_
*79 _0061_
*80 _0062_
*81 _0063_
*82 _0064_
*83 _0065_
*84 _0066_
*85 _0067_
*86 _0068_
*87 _0069_
*88 _0070_
*89 _0071_
*90 _0072_
*91 _0073_
*92 _0074_
*93 _0075_
*94 _0076_
*95 _0077_
*96 _0078_
*97 _0079_
*98 _0080_
*99 _0081_
*100 _0082_
*101 _0083_
*102 _0084_
*103 _0085_
*104 _0086_
*105 _0087_
*106 _0088_
*107 _0089_
*108 _0090_
*109 _0091_
*110 _0092_
*111 _0093_
*112 _0094_
*113 _0095_
*114 _0096_
*115 _0097_
*116 _0098_
*117 _0099_
*118 _0100_
*119 _0101_
*120 _0102_
*121 _0103_
*122 _0104_
*123 _0105_
*124 _0106_
*125 _0107_
*126 _0108_
*127 _0109_
*128 _0110_
*129 _0111_
*130 _0112_
*131 _0113_
*132 _0114_
*133 _0115_
*134 _0116_
*135 _0117_
*136 _0118_
*137 _0119_
*138 _0120_
*139 _0121_
*140 _0122_
*141 _0123_
*142 _0124_
*143 _0125_
*144 _0126_
*145 _0127_
*146 _0128_
*147 _0129_
*148 _0130_
*149 _0131_
*150 _0132_
*151 _0133_
*152 _0134_
*153 _0135_
*154 _0136_
*155 _0137_
*156 _0138_
*157 _0139_
*158 _0140_
*159 _0141_
*160 _0142_
*161 _0143_
*162 _0144_
*163 _0145_
*164 _0146_
*165 _0147_
*166 _0148_
*167 _0149_
*168 _0150_
*169 _0151_
*170 _0152_
*171 _0153_
*172 _0154_
*173 _0155_
*174 _0156_
*175 _0157_
*176 _0158_
*177 _0159_
*178 _0160_
*179 _0161_
*180 _0162_
*181 _0163_
*182 _0164_
*183 _0165_
*184 _0166_
*185 _0167_
*186 _0168_
*187 _0169_
*188 _0170_
*189 _0171_
*190 _0172_
*191 _0173_
*192 _0174_
*193 _0175_
*194 _0176_
*195 _0177_
*196 _0178_
*197 _0179_
*198 _0180_
*199 _0181_
*200 _0182_
*201 _0183_
*202 _0184_
*203 _0185_
*204 _0186_
*205 _0187_
*206 _0188_
*207 _0189_
*208 _0190_
*209 _0191_
*210 _0192_
*211 _0193_
*212 _0194_
*213 _0195_
*214 _0196_
*215 _0197_
*216 _0198_
*217 _0199_
*218 _0200_
*219 _0201_
*220 _0202_
*221 _0203_
*222 _0204_
*223 _0205_
*224 _0206_
*225 _0207_
*226 _0208_
*227 _0209_
*228 _0210_
*229 _0211_
*230 _0212_
*231 _0213_
*232 _0214_
*233 _0215_
*234 _0216_
*235 _0217_
*236 _0218_
*237 _0219_
*238 _0220_
*239 _0221_
*240 _0222_
*241 _0223_
*242 _0224_
*243 _0225_
*244 _0226_
*245 _0227_
*246 _0228_
*247 _0229_
*248 _0230_
*249 _0231_
*250 _0232_
*251 _0233_
*252 _0234_
*253 _0235_
*254 _0236_
*255 _0237_
*256 _0238_
*257 _0239_
*258 _0240_
*259 _0241_
*260 _0242_
*261 _0243_
*262 _0244_
*263 _0245_
*264 _0246_
*265 _0247_
*266 _0248_
*267 _0249_
*268 _0250_
*269 _0251_
*270 _0252_
*271 _0253_
*272 _0254_
*273 _0255_
*274 _0256_
*275 _0257_
*276 _0258_
*277 _0259_
*278 _0260_
*279 _0261_
*280 _0262_
*281 _0263_
*282 _0264_
*283 _0265_
*284 _0266_
*285 _0267_
*286 _0268_
*287 _0269_
*288 _0270_
*289 _0271_
*290 _0272_
*291 _0273_
*292 _0274_
*293 _0275_
*294 _0276_
*295 _0277_
*296 _0278_
*297 _0279_
*298 _0280_
*299 _0281_
*300 _0282_
*301 _0283_
*302 _0284_
*303 _0285_
*304 _0286_
*305 _0287_
*306 _0288_
*307 _0289_
*308 _0290_
*309 _0291_
*310 _0292_
*311 _0293_
*312 _0294_
*313 _0295_
*314 _0296_
*315 _0297_
*316 _0298_
*317 _0299_
*318 _0300_
*319 _0301_
*320 _0302_
*321 _0303_
*322 _0304_
*323 _0305_
*324 _0306_
*325 _0307_
*326 _0308_
*327 _0309_
*328 _0310_
*329 _0311_
*330 _0312_
*331 _0313_
*332 _0314_
*333 _0315_
*334 _0316_
*335 _0317_
*336 _0318_
*337 _0319_
*338 _0320_
*339 _0321_
*340 _0322_
*341 _0323_
*342 _0324_
*343 _0325_
*344 _0326_
*345 _0327_
*346 _0328_
*347 _0329_
*348 _0330_
*349 _0331_
*350 _0332_
*351 _0333_
*352 _0334_
*353 _0335_
*354 _0336_
*355 _0337_
*356 _0338_
*357 _0339_
*358 _0340_
*359 _0341_
*360 _0342_
*361 _0343_
*362 _0344_
*363 _0345_
*364 _0346_
*365 _0347_
*366 _0348_
*367 _0349_
*368 _0350_
*369 _0351_
*370 _0352_
*371 _0353_
*372 _0354_
*373 _0355_
*374 _0356_
*375 _0357_
*376 _0358_
*377 _0359_
*378 _0360_
*379 _0361_
*380 _0362_
*381 _0363_
*382 _0364_
*383 _0365_
*384 _0366_
*385 _0367_
*386 _0368_
*387 _0369_
*388 _0370_
*389 _0371_
*390 _0372_
*391 _0373_
*392 _0374_
*393 _0375_
*394 _0376_
*395 _0377_
*396 _0378_
*397 _0379_
*398 _0380_
*399 _0381_
*400 _0382_
*401 _0383_
*402 _0384_
*403 _0385_
*404 _0386_
*405 _0387_
*406 _0388_
*407 _0389_
*408 _0390_
*409 _0391_
*410 _0392_
*411 _0393_
*412 _0394_
*413 _0395_
*414 _0396_
*415 _0397_
*416 _0398_
*417 _0399_
*418 _0400_
*419 _0401_
*420 _0402_
*421 _0403_
*422 _0404_
*423 _0405_
*424 _0406_
*425 _0407_
*426 _0408_
*427 _0409_
*428 _0410_
*429 _0411_
*430 _0412_
*431 _0413_
*432 _0414_
*433 _0415_
*434 _0416_
*435 _0417_
*436 _0418_
*437 _0419_
*438 _0420_
*439 _0421_
*440 _0422_
*441 _0423_
*442 _0424_
*443 _0425_
*444 _0426_
*445 _0427_
*446 _0428_
*447 _0429_
*448 _0430_
*449 _0431_
*450 _0432_
*451 _0433_
*452 _0434_
*453 _0435_
*454 _0436_
*455 _0437_
*456 _0438_
*457 _0439_
*458 _0440_
*459 _0441_
*460 _0442_
*461 _0443_
*462 _0444_
*463 _0445_
*464 _0446_
*465 _0447_
*466 _0448_
*467 _0449_
*468 _0450_
*469 _0451_
*470 _0452_
*471 _0453_
*472 _0454_
*473 _0455_
*474 _0456_
*475 _0457_
*476 _0458_
*477 _0459_
*478 _0460_
*479 _0461_
*480 _0462_
*481 _0463_
*482 _0464_
*483 _0465_
*484 _0466_
*485 _0467_
*486 _0468_
*487 _0469_
*488 _0470_
*489 _0471_
*490 _0472_
*491 _0473_
*492 _0474_
*493 _0475_
*494 _0476_
*495 _0477_
*496 _0478_
*497 _0479_
*498 _0480_
*499 _0481_
*500 _0482_
*501 _0483_
*502 _0484_
*503 _0485_
*504 _0486_
*505 _0487_
*506 _0488_
*507 _0489_
*508 _0490_
*509 _0491_
*510 _0492_
*511 _0493_
*512 _0494_
*513 _0495_
*514 _0496_
*515 _0497_
*516 _0498_
*517 _0499_
*518 _0500_
*519 _0501_
*520 _0502_
*521 _0503_
*522 _0504_
*523 _0505_
*524 _0506_
*525 _0507_
*526 _0508_
*527 _0509_
*528 _0510_
*529 _0511_
*530 _0512_
*531 _0513_
*532 _0514_
*533 _0515_
*534 _0516_
*535 _0517_
*536 _0518_
*537 _0519_
*538 _0520_
*539 _0521_
*540 _0522_
*541 _0523_
*542 _0524_
*543 _0525_
*544 _0526_
*545 _0527_
*546 _0528_
*547 _0529_
*548 _0530_
*549 _0531_
*550 _0532_
*551 _0533_
*552 _0534_
*553 _0535_
*554 _0536_
*555 _0537_
*556 _0538_
*557 _0539_
*558 _0540_
*559 _0541_
*560 _0542_
*561 _0543_
*562 _0544_
*563 _0545_
*564 _0546_
*565 _0547_
*566 _0548_
*567 _0549_
*568 _0550_
*569 _0551_
*570 _0552_
*571 _0553_
*572 _0554_
*573 _0555_
*574 _0556_
*575 _0557_
*576 _0558_
*577 _0559_
*578 _0560_
*579 _0561_
*580 _0562_
*581 _0563_
*582 _0564_
*583 _0565_
*584 _0566_
*585 _0567_
*586 _0568_
*587 _0569_
*588 _0570_
*589 _0571_
*590 _0572_
*591 _0573_
*592 _0574_
*593 _0575_
*594 _0576_
*595 _0577_
*596 _0578_
*597 _0579_
*598 _0580_
*599 _0581_
*600 _0582_
*601 _0583_
*602 _0584_
*603 _0585_
*604 _0586_
*605 _0587_
*606 _0588_
*607 _0589_
*608 _0590_
*609 _0591_
*610 _0592_
*611 _0593_
*612 _0594_
*613 _0595_
*614 _0596_
*615 _0597_
*616 _0598_
*617 _0599_
*618 _0600_
*619 _0601_
*620 _0602_
*621 _0603_
*622 _0604_
*623 _0605_
*624 _0606_
*625 _0607_
*626 _0608_
*627 _0609_
*628 _0610_
*629 _0611_
*630 _0612_
*631 _0613_
*632 _0614_
*633 _0615_
*634 _0616_
*635 _0617_
*636 _0618_
*637 _0619_
*638 _0620_
*639 _0621_
*640 _0622_
*641 _0623_
*642 _0624_
*643 _0625_
*644 _0626_
*645 _0627_
*646 _0628_
*647 _0629_
*648 _0630_
*649 _0631_
*650 _0632_
*651 _0633_
*652 _0634_
*653 _0635_
*654 _0636_
*655 _0637_
*656 _0638_
*657 _0639_
*658 _0640_
*659 _0641_
*660 _0642_
*661 _0643_
*662 _0644_
*663 _0645_
*664 _0646_
*665 _0647_
*666 _0648_
*667 _0649_
*668 _0650_
*669 _0651_
*670 _0652_
*671 _0653_
*672 _0654_
*673 _0655_
*674 _0656_
*675 _0657_
*676 _0658_
*677 _0659_
*678 _0660_
*679 _0661_
*680 _0662_
*681 _0663_
*682 _0664_
*683 _0665_
*684 _0666_
*685 _0667_
*686 _0668_
*687 _0669_
*688 _0670_
*689 _0671_
*690 _0672_
*691 _0673_
*692 _0674_
*693 _0675_
*694 _0676_
*695 _0677_
*696 _0678_
*697 _0679_
*698 _0680_
*699 _0681_
*700 _0682_
*701 _0683_
*702 _0684_
*703 _0685_
*704 _0686_
*705 _0687_
*706 _0688_
*707 _0689_
*708 _0690_
*709 _0691_
*710 _0692_
*711 _0693_
*712 _0694_
*713 _0695_
*714 _0696_
*715 _0697_
*716 _0698_
*717 _0699_
*718 _0700_
*719 _0701_
*720 _0702_
*721 _0703_
*722 _0704_
*723 _0705_
*724 _0706_
*725 _0707_
*726 _0708_
*727 _0709_
*728 _0710_
*729 _0711_
*730 _0712_
*731 _0713_
*732 _0714_
*733 _0715_
*734 _0716_
*735 _0717_
*736 _0718_
*737 _0719_
*738 _0720_
*739 _0721_
*740 _0722_
*741 _0723_
*742 _0724_
*743 _0725_
*744 _0726_
*745 _0727_
*746 _0728_
*747 _0729_
*748 _0730_
*749 _0731_
*750 _0732_
*751 _0733_
*752 _0734_
*753 _0735_
*754 _0736_
*755 _0737_
*756 _0738_
*757 _0739_
*758 _0740_
*759 _0741_
*760 _0742_
*761 _0743_
*762 _0744_
*763 _0745_
*764 _0746_
*765 _0747_
*766 _0748_
*767 _0749_
*768 _0750_
*769 _0751_
*770 _0752_
*771 _0753_
*772 _0754_
*773 _0755_
*774 _0756_
*775 _0757_
*776 _0758_
*777 _0759_
*778 _0760_
*779 _0761_
*780 _0762_
*781 _0763_
*782 _0764_
*783 _0765_
*784 _0766_
*785 _0767_
*786 _0768_
*787 _0769_
*788 _0770_
*789 _0771_
*790 _0772_
*791 _0773_
*792 _0774_
*793 _0775_
*794 _0776_
*795 _0777_
*796 _0778_
*797 _0779_
*798 _0780_
*799 _0781_
*800 _0782_
*801 _0783_
*802 _0784_
*803 _0785_
*804 _0786_
*805 _0787_
*806 _0788_
*807 _0789_
*808 _0790_
*809 _0791_
*810 _0792_
*811 _0793_
*812 _0794_
*813 _0795_
*814 _0796_
*815 _0797_
*816 _0798_
*817 _0799_
*818 _0800_
*819 _0801_
*820 _0802_
*821 _0803_
*822 _0804_
*823 _0805_
*824 _0806_
*825 _0807_
*826 _0808_
*827 _0809_
*828 _0810_
*829 _0811_
*830 _0812_
*831 _0813_
*832 _0814_
*833 _0815_
*834 _0816_
*835 _0817_
*836 _0818_
*837 _0819_
*838 _0820_
*839 _0821_
*840 _0822_
*841 _0823_
*842 _0824_
*843 _0825_
*844 _0826_
*845 _0827_
*846 _0828_
*847 _0829_
*848 _0830_
*849 _0831_
*850 _0832_
*851 _0833_
*852 _0834_
*853 _0835_
*854 _0836_
*855 _0837_
*856 _0838_
*857 _0839_
*858 _0840_
*859 _0841_
*860 _0842_
*861 _0843_
*862 _0844_
*863 _0845_
*864 _0846_
*865 _0847_
*866 _0848_
*867 _0849_
*868 _0850_
*869 _0851_
*870 _0852_
*871 _0853_
*872 _0854_
*873 _0855_
*874 _0856_
*875 _0857_
*876 _0858_
*877 _0859_
*878 _0860_
*879 _0861_
*880 _0862_
*881 _0863_
*882 _0864_
*883 _0865_
*884 _0866_
*885 _0867_
*886 _0868_
*887 _0869_
*888 _0870_
*889 _0871_
*890 _0872_
*891 _0873_
*892 _0874_
*893 alu\.flag
*894 alu\.in_a\[0\]
*895 alu\.in_a\[1\]
*896 alu\.in_a\[2\]
*897 alu\.in_a\[3\]
*898 alu\.in_a\[4\]
*899 alu\.in_a\[5\]
*900 alu\.in_a\[6\]
*901 alu\.in_a\[7\]
*902 alu\.in_b\[0\]
*903 alu\.in_b\[1\]
*904 alu\.in_b\[2\]
*905 alu\.in_b\[3\]
*906 alu\.in_b\[4\]
*907 alu\.in_b\[5\]
*908 alu\.in_b\[6\]
*909 alu\.in_b\[7\]
*910 alu\.load
*911 alu\.out\[0\]
*912 alu\.out\[1\]
*913 alu\.out\[2\]
*914 alu\.out\[3\]
*915 alu\.out\[4\]
*916 alu\.out\[5\]
*917 alu\.out\[6\]
*918 alu\.out\[7\]
*919 alu\.select\[0\]
*920 alu\.select\[1\]
*921 clknet_0_clk
*922 clknet_1_0_0_clk
*923 clknet_1_1_0_clk
*924 clok_divider\.clk_div
*925 current_state\[0\]
*926 current_state\[1\]
*927 current_state\[2\]
*928 debouncer_rotary_a\.out
*929 debouncer_rotary_a\.shift_reg\[0\]
*930 debouncer_rotary_a\.shift_reg\[1\]
*931 debouncer_rotary_a\.shift_reg\[2\]
*932 debouncer_rotary_a\.shift_reg\[3\]
*933 debouncer_rotary_a\.shift_reg\[4\]
*934 debouncer_rotary_a\.shift_reg\[5\]
*935 debouncer_rotary_a\.shift_reg\[6\]
*936 debouncer_rotary_a\.shift_reg\[7\]
*937 debouncer_rotary_b\.out
*938 debouncer_rotary_b\.shift_reg\[0\]
*939 debouncer_rotary_b\.shift_reg\[1\]
*940 debouncer_rotary_b\.shift_reg\[2\]
*941 debouncer_rotary_b\.shift_reg\[3\]
*942 debouncer_rotary_b\.shift_reg\[4\]
*943 debouncer_rotary_b\.shift_reg\[5\]
*944 debouncer_rotary_b\.shift_reg\[6\]
*945 debouncer_rotary_b\.shift_reg\[7\]
*946 debouncer_rotary_restart\.out
*947 debouncer_rotary_restart\.shift_reg\[0\]
*948 debouncer_rotary_restart\.shift_reg\[1\]
*949 debouncer_rotary_restart\.shift_reg\[2\]
*950 debouncer_rotary_restart\.shift_reg\[3\]
*951 debouncer_rotary_restart\.shift_reg\[4\]
*952 debouncer_rotary_restart\.shift_reg\[5\]
*953 debouncer_rotary_restart\.shift_reg\[6\]
*954 debouncer_rotary_restart\.shift_reg\[7\]
*955 debouncer_rotary_select\.out
*956 debouncer_rotary_select\.shift_reg\[0\]
*957 debouncer_rotary_select\.shift_reg\[1\]
*958 debouncer_rotary_select\.shift_reg\[2\]
*959 debouncer_rotary_select\.shift_reg\[3\]
*960 debouncer_rotary_select\.shift_reg\[4\]
*961 debouncer_rotary_select\.shift_reg\[5\]
*962 debouncer_rotary_select\.shift_reg\[6\]
*963 debouncer_rotary_select\.shift_reg\[7\]
*964 net1
*965 net10
*966 net11
*967 net12
*968 net13
*969 net14
*970 net2
*971 net3
*972 net4
*973 net5
*974 net6
*975 net7
*976 net8
*977 net9
*978 next_state\[0\]
*979 next_state\[1\]
*980 next_state\[2\]
*981 rotary_encoder\.a_d1
*982 rotary_encoder\.b_d1
*983 rotary_encoder\.out\[0\]
*984 rotary_encoder\.out\[1\]
*985 rotary_encoder\.out\[2\]
*986 rotary_encoder\.out\[3\]
*987 rotary_encoder\.out\[4\]
*988 rotary_encoder\.out\[5\]
*989 rotary_encoder\.out\[6\]
*990 rotary_encoder\.out\[7\]
*991 select_d1
*992 seven_segment\.load
*993 seven_segment\.tens\[0\]
*994 seven_segment\.tens\[1\]
*995 seven_segment\.tens\[2\]
*996 seven_segment\.tens\[3\]
*997 seven_segment\.tens_r\[0\]
*998 seven_segment\.tens_r\[1\]
*999 seven_segment\.tens_r\[2\]
*1000 seven_segment\.tens_r\[3\]
*1001 seven_segment\.units\[0\]
*1002 seven_segment\.units\[1\]
*1003 seven_segment\.units\[2\]
*1004 seven_segment\.units\[3\]
*1005 seven_segment\.units_r\[0\]
*1006 seven_segment\.units_r\[1\]
*1007 seven_segment\.units_r\[2\]
*1008 seven_segment\.units_r\[3\]
*1009 ANTENNA_0
*1010 FILLER_0_104
*1011 FILLER_0_113
*1012 FILLER_0_125
*1013 FILLER_0_137
*1014 FILLER_0_141
*1015 FILLER_0_153
*1016 FILLER_0_165
*1017 FILLER_0_169
*1018 FILLER_0_18
*1019 FILLER_0_181
*1020 FILLER_0_193
*1021 FILLER_0_197
*1022 FILLER_0_209
*1023 FILLER_0_217
*1024 FILLER_0_223
*1025 FILLER_0_225
*1026 FILLER_0_237
*1027 FILLER_0_249
*1028 FILLER_0_253
*1029 FILLER_0_26
*1030 FILLER_0_265
*1031 FILLER_0_277
*1032 FILLER_0_281
*1033 FILLER_0_29
*1034 FILLER_0_293
*1035 FILLER_0_305
*1036 FILLER_0_309
*1037 FILLER_0_321
*1038 FILLER_0_332
*1039 FILLER_0_337
*1040 FILLER_0_349
*1041 FILLER_0_361
*1042 FILLER_0_365
*1043 FILLER_0_377
*1044 FILLER_0_389
*1045 FILLER_0_393
*1046 FILLER_0_403
*1047 FILLER_0_41
*1048 FILLER_0_53
*1049 FILLER_0_57
*1050 FILLER_0_6
*1051 FILLER_0_69
*1052 FILLER_0_81
*1053 FILLER_0_85
*1054 FILLER_0_97
*1055 FILLER_10_107
*1056 FILLER_10_116
*1057 FILLER_10_123
*1058 FILLER_10_135
*1059 FILLER_10_139
*1060 FILLER_10_141
*1061 FILLER_10_15
*1062 FILLER_10_153
*1063 FILLER_10_165
*1064 FILLER_10_173
*1065 FILLER_10_191
*1066 FILLER_10_195
*1067 FILLER_10_197
*1068 FILLER_10_209
*1069 FILLER_10_221
*1070 FILLER_10_233
*1071 FILLER_10_245
*1072 FILLER_10_251
*1073 FILLER_10_253
*1074 FILLER_10_265
*1075 FILLER_10_27
*1076 FILLER_10_277
*1077 FILLER_10_289
*1078 FILLER_10_29
*1079 FILLER_10_3
*1080 FILLER_10_301
*1081 FILLER_10_307
*1082 FILLER_10_309
*1083 FILLER_10_321
*1084 FILLER_10_333
*1085 FILLER_10_345
*1086 FILLER_10_357
*1087 FILLER_10_363
*1088 FILLER_10_365
*1089 FILLER_10_377
*1090 FILLER_10_389
*1091 FILLER_10_401
*1092 FILLER_10_41
*1093 FILLER_10_53
*1094 FILLER_10_65
*1095 FILLER_10_77
*1096 FILLER_10_83
*1097 FILLER_10_85
*1098 FILLER_11_100
*1099 FILLER_11_107
*1100 FILLER_11_111
*1101 FILLER_11_113
*1102 FILLER_11_131
*1103 FILLER_11_137
*1104 FILLER_11_143
*1105 FILLER_11_147
*1106 FILLER_11_15
*1107 FILLER_11_164
*1108 FILLER_11_169
*1109 FILLER_11_173
*1110 FILLER_11_177
*1111 FILLER_11_189
*1112 FILLER_11_201
*1113 FILLER_11_213
*1114 FILLER_11_221
*1115 FILLER_11_225
*1116 FILLER_11_237
*1117 FILLER_11_249
*1118 FILLER_11_261
*1119 FILLER_11_27
*1120 FILLER_11_273
*1121 FILLER_11_279
*1122 FILLER_11_281
*1123 FILLER_11_293
*1124 FILLER_11_3
*1125 FILLER_11_305
*1126 FILLER_11_317
*1127 FILLER_11_329
*1128 FILLER_11_335
*1129 FILLER_11_337
*1130 FILLER_11_349
*1131 FILLER_11_361
*1132 FILLER_11_373
*1133 FILLER_11_385
*1134 FILLER_11_39
*1135 FILLER_11_391
*1136 FILLER_11_393
*1137 FILLER_11_405
*1138 FILLER_11_51
*1139 FILLER_11_55
*1140 FILLER_11_57
*1141 FILLER_11_69
*1142 FILLER_11_93
*1143 FILLER_12_116
*1144 FILLER_12_125
*1145 FILLER_12_136
*1146 FILLER_12_15
*1147 FILLER_12_157
*1148 FILLER_12_166
*1149 FILLER_12_173
*1150 FILLER_12_181
*1151 FILLER_12_191
*1152 FILLER_12_195
*1153 FILLER_12_202
*1154 FILLER_12_206
*1155 FILLER_12_212
*1156 FILLER_12_219
*1157 FILLER_12_227
*1158 FILLER_12_231
*1159 FILLER_12_238
*1160 FILLER_12_250
*1161 FILLER_12_253
*1162 FILLER_12_265
*1163 FILLER_12_27
*1164 FILLER_12_277
*1165 FILLER_12_289
*1166 FILLER_12_29
*1167 FILLER_12_3
*1168 FILLER_12_301
*1169 FILLER_12_307
*1170 FILLER_12_309
*1171 FILLER_12_321
*1172 FILLER_12_333
*1173 FILLER_12_345
*1174 FILLER_12_357
*1175 FILLER_12_363
*1176 FILLER_12_365
*1177 FILLER_12_377
*1178 FILLER_12_389
*1179 FILLER_12_401
*1180 FILLER_12_41
*1181 FILLER_12_53
*1182 FILLER_12_65
*1183 FILLER_12_73
*1184 FILLER_12_80
*1185 FILLER_12_85
*1186 FILLER_12_96
*1187 FILLER_13_101
*1188 FILLER_13_108
*1189 FILLER_13_119
*1190 FILLER_13_131
*1191 FILLER_13_149
*1192 FILLER_13_15
*1193 FILLER_13_156
*1194 FILLER_13_160
*1195 FILLER_13_164
*1196 FILLER_13_174
*1197 FILLER_13_196
*1198 FILLER_13_220
*1199 FILLER_13_225
*1200 FILLER_13_245
*1201 FILLER_13_257
*1202 FILLER_13_269
*1203 FILLER_13_27
*1204 FILLER_13_277
*1205 FILLER_13_281
*1206 FILLER_13_293
*1207 FILLER_13_3
*1208 FILLER_13_305
*1209 FILLER_13_317
*1210 FILLER_13_329
*1211 FILLER_13_335
*1212 FILLER_13_337
*1213 FILLER_13_349
*1214 FILLER_13_361
*1215 FILLER_13_373
*1216 FILLER_13_385
*1217 FILLER_13_39
*1218 FILLER_13_391
*1219 FILLER_13_393
*1220 FILLER_13_405
*1221 FILLER_13_51
*1222 FILLER_13_55
*1223 FILLER_13_57
*1224 FILLER_13_65
*1225 FILLER_13_82
*1226 FILLER_13_89
*1227 FILLER_14_103
*1228 FILLER_14_123
*1229 FILLER_14_132
*1230 FILLER_14_146
*1231 FILLER_14_15
*1232 FILLER_14_153
*1233 FILLER_14_157
*1234 FILLER_14_174
*1235 FILLER_14_184
*1236 FILLER_14_191
*1237 FILLER_14_195
*1238 FILLER_14_213
*1239 FILLER_14_221
*1240 FILLER_14_239
*1241 FILLER_14_251
*1242 FILLER_14_257
*1243 FILLER_14_266
*1244 FILLER_14_27
*1245 FILLER_14_278
*1246 FILLER_14_29
*1247 FILLER_14_290
*1248 FILLER_14_3
*1249 FILLER_14_302
*1250 FILLER_14_309
*1251 FILLER_14_321
*1252 FILLER_14_333
*1253 FILLER_14_345
*1254 FILLER_14_357
*1255 FILLER_14_363
*1256 FILLER_14_365
*1257 FILLER_14_377
*1258 FILLER_14_389
*1259 FILLER_14_401
*1260 FILLER_14_41
*1261 FILLER_14_53
*1262 FILLER_14_65
*1263 FILLER_14_73
*1264 FILLER_14_80
*1265 FILLER_14_85
*1266 FILLER_14_94
*1267 FILLER_15_100
*1268 FILLER_15_108
*1269 FILLER_15_121
*1270 FILLER_15_129
*1271 FILLER_15_146
*1272 FILLER_15_15
*1273 FILLER_15_156
*1274 FILLER_15_163
*1275 FILLER_15_167
*1276 FILLER_15_169
*1277 FILLER_15_177
*1278 FILLER_15_189
*1279 FILLER_15_197
*1280 FILLER_15_204
*1281 FILLER_15_214
*1282 FILLER_15_222
*1283 FILLER_15_230
*1284 FILLER_15_239
*1285 FILLER_15_251
*1286 FILLER_15_258
*1287 FILLER_15_266
*1288 FILLER_15_27
*1289 FILLER_15_276
*1290 FILLER_15_281
*1291 FILLER_15_293
*1292 FILLER_15_3
*1293 FILLER_15_305
*1294 FILLER_15_317
*1295 FILLER_15_329
*1296 FILLER_15_335
*1297 FILLER_15_337
*1298 FILLER_15_349
*1299 FILLER_15_361
*1300 FILLER_15_373
*1301 FILLER_15_385
*1302 FILLER_15_39
*1303 FILLER_15_391
*1304 FILLER_15_393
*1305 FILLER_15_405
*1306 FILLER_15_51
*1307 FILLER_15_55
*1308 FILLER_15_57
*1309 FILLER_15_69
*1310 FILLER_15_73
*1311 FILLER_15_82
*1312 FILLER_15_94
*1313 FILLER_16_101
*1314 FILLER_16_121
*1315 FILLER_16_129
*1316 FILLER_16_136
*1317 FILLER_16_141
*1318 FILLER_16_149
*1319 FILLER_16_157
*1320 FILLER_16_166
*1321 FILLER_16_186
*1322 FILLER_16_19
*1323 FILLER_16_194
*1324 FILLER_16_200
*1325 FILLER_16_212
*1326 FILLER_16_229
*1327 FILLER_16_241
*1328 FILLER_16_248
*1329 FILLER_16_261
*1330 FILLER_16_27
*1331 FILLER_16_286
*1332 FILLER_16_29
*1333 FILLER_16_298
*1334 FILLER_16_306
*1335 FILLER_16_309
*1336 FILLER_16_321
*1337 FILLER_16_333
*1338 FILLER_16_345
*1339 FILLER_16_357
*1340 FILLER_16_363
*1341 FILLER_16_365
*1342 FILLER_16_377
*1343 FILLER_16_389
*1344 FILLER_16_401
*1345 FILLER_16_41
*1346 FILLER_16_53
*1347 FILLER_16_61
*1348 FILLER_16_7
*1349 FILLER_16_80
*1350 FILLER_17_108
*1351 FILLER_17_117
*1352 FILLER_17_125
*1353 FILLER_17_137
*1354 FILLER_17_144
*1355 FILLER_17_15
*1356 FILLER_17_164
*1357 FILLER_17_179
*1358 FILLER_17_187
*1359 FILLER_17_195
*1360 FILLER_17_201
*1361 FILLER_17_210
*1362 FILLER_17_217
*1363 FILLER_17_223
*1364 FILLER_17_225
*1365 FILLER_17_233
*1366 FILLER_17_241
*1367 FILLER_17_255
*1368 FILLER_17_265
*1369 FILLER_17_27
*1370 FILLER_17_274
*1371 FILLER_17_284
*1372 FILLER_17_291
*1373 FILLER_17_3
*1374 FILLER_17_303
*1375 FILLER_17_315
*1376 FILLER_17_327
*1377 FILLER_17_335
*1378 FILLER_17_337
*1379 FILLER_17_349
*1380 FILLER_17_361
*1381 FILLER_17_373
*1382 FILLER_17_385
*1383 FILLER_17_39
*1384 FILLER_17_391
*1385 FILLER_17_393
*1386 FILLER_17_405
*1387 FILLER_17_51
*1388 FILLER_17_55
*1389 FILLER_17_57
*1390 FILLER_17_69
*1391 FILLER_17_77
*1392 FILLER_17_83
*1393 FILLER_17_94
*1394 FILLER_18_108
*1395 FILLER_18_117
*1396 FILLER_18_126
*1397 FILLER_18_133
*1398 FILLER_18_139
*1399 FILLER_18_146
*1400 FILLER_18_15
*1401 FILLER_18_155
*1402 FILLER_18_169
*1403 FILLER_18_177
*1404 FILLER_18_192
*1405 FILLER_18_213
*1406 FILLER_18_220
*1407 FILLER_18_233
*1408 FILLER_18_246
*1409 FILLER_18_263
*1410 FILLER_18_27
*1411 FILLER_18_278
*1412 FILLER_18_287
*1413 FILLER_18_29
*1414 FILLER_18_299
*1415 FILLER_18_3
*1416 FILLER_18_307
*1417 FILLER_18_309
*1418 FILLER_18_321
*1419 FILLER_18_333
*1420 FILLER_18_345
*1421 FILLER_18_357
*1422 FILLER_18_363
*1423 FILLER_18_365
*1424 FILLER_18_377
*1425 FILLER_18_389
*1426 FILLER_18_401
*1427 FILLER_18_41
*1428 FILLER_18_53
*1429 FILLER_18_65
*1430 FILLER_18_77
*1431 FILLER_18_83
*1432 FILLER_18_88
*1433 FILLER_19_100
*1434 FILLER_19_104
*1435 FILLER_19_108
*1436 FILLER_19_129
*1437 FILLER_19_149
*1438 FILLER_19_15
*1439 FILLER_19_159
*1440 FILLER_19_167
*1441 FILLER_19_172
*1442 FILLER_19_192
*1443 FILLER_19_200
*1444 FILLER_19_210
*1445 FILLER_19_222
*1446 FILLER_19_234
*1447 FILLER_19_251
*1448 FILLER_19_255
*1449 FILLER_19_263
*1450 FILLER_19_267
*1451 FILLER_19_27
*1452 FILLER_19_276
*1453 FILLER_19_290
*1454 FILLER_19_299
*1455 FILLER_19_3
*1456 FILLER_19_311
*1457 FILLER_19_323
*1458 FILLER_19_335
*1459 FILLER_19_337
*1460 FILLER_19_349
*1461 FILLER_19_361
*1462 FILLER_19_373
*1463 FILLER_19_385
*1464 FILLER_19_39
*1465 FILLER_19_391
*1466 FILLER_19_393
*1467 FILLER_19_403
*1468 FILLER_19_51
*1469 FILLER_19_55
*1470 FILLER_19_57
*1471 FILLER_19_69
*1472 FILLER_19_91
*1473 FILLER_1_105
*1474 FILLER_1_111
*1475 FILLER_1_113
*1476 FILLER_1_125
*1477 FILLER_1_137
*1478 FILLER_1_149
*1479 FILLER_1_15
*1480 FILLER_1_161
*1481 FILLER_1_167
*1482 FILLER_1_169
*1483 FILLER_1_181
*1484 FILLER_1_193
*1485 FILLER_1_205
*1486 FILLER_1_217
*1487 FILLER_1_223
*1488 FILLER_1_225
*1489 FILLER_1_237
*1490 FILLER_1_249
*1491 FILLER_1_261
*1492 FILLER_1_27
*1493 FILLER_1_273
*1494 FILLER_1_279
*1495 FILLER_1_281
*1496 FILLER_1_293
*1497 FILLER_1_3
*1498 FILLER_1_305
*1499 FILLER_1_317
*1500 FILLER_1_329
*1501 FILLER_1_335
*1502 FILLER_1_337
*1503 FILLER_1_349
*1504 FILLER_1_361
*1505 FILLER_1_373
*1506 FILLER_1_385
*1507 FILLER_1_39
*1508 FILLER_1_391
*1509 FILLER_1_393
*1510 FILLER_1_405
*1511 FILLER_1_51
*1512 FILLER_1_55
*1513 FILLER_1_57
*1514 FILLER_1_69
*1515 FILLER_1_81
*1516 FILLER_1_93
*1517 FILLER_20_111
*1518 FILLER_20_117
*1519 FILLER_20_123
*1520 FILLER_20_127
*1521 FILLER_20_136
*1522 FILLER_20_141
*1523 FILLER_20_15
*1524 FILLER_20_152
*1525 FILLER_20_172
*1526 FILLER_20_180
*1527 FILLER_20_187
*1528 FILLER_20_195
*1529 FILLER_20_202
*1530 FILLER_20_217
*1531 FILLER_20_237
*1532 FILLER_20_243
*1533 FILLER_20_248
*1534 FILLER_20_262
*1535 FILLER_20_27
*1536 FILLER_20_280
*1537 FILLER_20_29
*1538 FILLER_20_294
*1539 FILLER_20_3
*1540 FILLER_20_306
*1541 FILLER_20_309
*1542 FILLER_20_321
*1543 FILLER_20_333
*1544 FILLER_20_345
*1545 FILLER_20_357
*1546 FILLER_20_363
*1547 FILLER_20_365
*1548 FILLER_20_377
*1549 FILLER_20_389
*1550 FILLER_20_401
*1551 FILLER_20_41
*1552 FILLER_20_53
*1553 FILLER_20_61
*1554 FILLER_20_80
*1555 FILLER_20_88
*1556 FILLER_20_92
*1557 FILLER_20_99
*1558 FILLER_21_104
*1559 FILLER_21_116
*1560 FILLER_21_124
*1561 FILLER_21_137
*1562 FILLER_21_15
*1563 FILLER_21_157
*1564 FILLER_21_164
*1565 FILLER_21_169
*1566 FILLER_21_183
*1567 FILLER_21_198
*1568 FILLER_21_205
*1569 FILLER_21_218
*1570 FILLER_21_225
*1571 FILLER_21_236
*1572 FILLER_21_244
*1573 FILLER_21_254
*1574 FILLER_21_265
*1575 FILLER_21_27
*1576 FILLER_21_274
*1577 FILLER_21_281
*1578 FILLER_21_289
*1579 FILLER_21_296
*1580 FILLER_21_3
*1581 FILLER_21_308
*1582 FILLER_21_320
*1583 FILLER_21_332
*1584 FILLER_21_337
*1585 FILLER_21_349
*1586 FILLER_21_361
*1587 FILLER_21_373
*1588 FILLER_21_385
*1589 FILLER_21_39
*1590 FILLER_21_391
*1591 FILLER_21_393
*1592 FILLER_21_405
*1593 FILLER_21_51
*1594 FILLER_21_55
*1595 FILLER_21_57
*1596 FILLER_21_69
*1597 FILLER_21_77
*1598 FILLER_21_86
*1599 FILLER_21_97
*1600 FILLER_22_106
*1601 FILLER_22_114
*1602 FILLER_22_131
*1603 FILLER_22_139
*1604 FILLER_22_141
*1605 FILLER_22_147
*1606 FILLER_22_15
*1607 FILLER_22_167
*1608 FILLER_22_175
*1609 FILLER_22_192
*1610 FILLER_22_200
*1611 FILLER_22_222
*1612 FILLER_22_231
*1613 FILLER_22_240
*1614 FILLER_22_248
*1615 FILLER_22_262
*1616 FILLER_22_27
*1617 FILLER_22_287
*1618 FILLER_22_29
*1619 FILLER_22_299
*1620 FILLER_22_3
*1621 FILLER_22_307
*1622 FILLER_22_309
*1623 FILLER_22_321
*1624 FILLER_22_333
*1625 FILLER_22_345
*1626 FILLER_22_357
*1627 FILLER_22_363
*1628 FILLER_22_365
*1629 FILLER_22_377
*1630 FILLER_22_389
*1631 FILLER_22_401
*1632 FILLER_22_41
*1633 FILLER_22_53
*1634 FILLER_22_61
*1635 FILLER_22_78
*1636 FILLER_22_85
*1637 FILLER_22_96
*1638 FILLER_23_108
*1639 FILLER_23_118
*1640 FILLER_23_127
*1641 FILLER_23_147
*1642 FILLER_23_15
*1643 FILLER_23_159
*1644 FILLER_23_167
*1645 FILLER_23_172
*1646 FILLER_23_184
*1647 FILLER_23_197
*1648 FILLER_23_205
*1649 FILLER_23_211
*1650 FILLER_23_219
*1651 FILLER_23_223
*1652 FILLER_23_225
*1653 FILLER_23_229
*1654 FILLER_23_249
*1655 FILLER_23_253
*1656 FILLER_23_260
*1657 FILLER_23_27
*1658 FILLER_23_274
*1659 FILLER_23_281
*1660 FILLER_23_293
*1661 FILLER_23_3
*1662 FILLER_23_305
*1663 FILLER_23_317
*1664 FILLER_23_329
*1665 FILLER_23_335
*1666 FILLER_23_337
*1667 FILLER_23_349
*1668 FILLER_23_361
*1669 FILLER_23_373
*1670 FILLER_23_385
*1671 FILLER_23_39
*1672 FILLER_23_391
*1673 FILLER_23_393
*1674 FILLER_23_405
*1675 FILLER_23_51
*1676 FILLER_23_55
*1677 FILLER_23_57
*1678 FILLER_23_61
*1679 FILLER_23_70
*1680 FILLER_23_79
*1681 FILLER_23_88
*1682 FILLER_24_111
*1683 FILLER_24_125
*1684 FILLER_24_134
*1685 FILLER_24_141
*1686 FILLER_24_15
*1687 FILLER_24_153
*1688 FILLER_24_173
*1689 FILLER_24_179
*1690 FILLER_24_192
*1691 FILLER_24_209
*1692 FILLER_24_225
*1693 FILLER_24_238
*1694 FILLER_24_247
*1695 FILLER_24_251
*1696 FILLER_24_253
*1697 FILLER_24_265
*1698 FILLER_24_27
*1699 FILLER_24_273
*1700 FILLER_24_285
*1701 FILLER_24_29
*1702 FILLER_24_297
*1703 FILLER_24_3
*1704 FILLER_24_305
*1705 FILLER_24_309
*1706 FILLER_24_321
*1707 FILLER_24_333
*1708 FILLER_24_345
*1709 FILLER_24_357
*1710 FILLER_24_363
*1711 FILLER_24_365
*1712 FILLER_24_377
*1713 FILLER_24_389
*1714 FILLER_24_401
*1715 FILLER_24_41
*1716 FILLER_24_53
*1717 FILLER_24_61
*1718 FILLER_24_80
*1719 FILLER_24_88
*1720 FILLER_24_99
*1721 FILLER_25_109
*1722 FILLER_25_119
*1723 FILLER_25_139
*1724 FILLER_25_15
*1725 FILLER_25_161
*1726 FILLER_25_169
*1727 FILLER_25_177
*1728 FILLER_25_184
*1729 FILLER_25_188
*1730 FILLER_25_192
*1731 FILLER_25_196
*1732 FILLER_25_200
*1733 FILLER_25_204
*1734 FILLER_25_217
*1735 FILLER_25_223
*1736 FILLER_25_225
*1737 FILLER_25_240
*1738 FILLER_25_260
*1739 FILLER_25_267
*1740 FILLER_25_27
*1741 FILLER_25_274
*1742 FILLER_25_281
*1743 FILLER_25_293
*1744 FILLER_25_3
*1745 FILLER_25_305
*1746 FILLER_25_317
*1747 FILLER_25_329
*1748 FILLER_25_335
*1749 FILLER_25_337
*1750 FILLER_25_349
*1751 FILLER_25_361
*1752 FILLER_25_373
*1753 FILLER_25_385
*1754 FILLER_25_39
*1755 FILLER_25_391
*1756 FILLER_25_393
*1757 FILLER_25_405
*1758 FILLER_25_51
*1759 FILLER_25_55
*1760 FILLER_25_57
*1761 FILLER_25_69
*1762 FILLER_25_75
*1763 FILLER_25_97
*1764 FILLER_26_111
*1765 FILLER_26_119
*1766 FILLER_26_129
*1767 FILLER_26_136
*1768 FILLER_26_144
*1769 FILLER_26_15
*1770 FILLER_26_151
*1771 FILLER_26_155
*1772 FILLER_26_172
*1773 FILLER_26_180
*1774 FILLER_26_185
*1775 FILLER_26_192
*1776 FILLER_26_197
*1777 FILLER_26_210
*1778 FILLER_26_218
*1779 FILLER_26_233
*1780 FILLER_26_239
*1781 FILLER_26_243
*1782 FILLER_26_251
*1783 FILLER_26_253
*1784 FILLER_26_27
*1785 FILLER_26_280
*1786 FILLER_26_29
*1787 FILLER_26_292
*1788 FILLER_26_3
*1789 FILLER_26_304
*1790 FILLER_26_309
*1791 FILLER_26_321
*1792 FILLER_26_333
*1793 FILLER_26_345
*1794 FILLER_26_357
*1795 FILLER_26_363
*1796 FILLER_26_365
*1797 FILLER_26_377
*1798 FILLER_26_389
*1799 FILLER_26_401
*1800 FILLER_26_41
*1801 FILLER_26_53
*1802 FILLER_26_65
*1803 FILLER_26_77
*1804 FILLER_26_83
*1805 FILLER_26_85
*1806 FILLER_26_93
*1807 FILLER_27_102
*1808 FILLER_27_110
*1809 FILLER_27_113
*1810 FILLER_27_121